!- NOTE: Auto-generated from /test/osw_files/MF_8units_1story_SL_3Beds_2Baths_Denver_Furnace_NoSetpoints.osw

OS:Version,
  {ea7ddd43-9902-41c5-b350-f846a7a32cf8}, !- Handle
  2.3.1;                                  !- Version Identifier

OS:Building,
  {bf305633-c5a1-4881-9edf-ca5e1a8e1274}, !- Handle
  Building,                               !- Name
  ,                                       !- Building Sector Type
  ,                                       !- North Axis {deg}
  ,                                       !- Nominal Floor to Floor Height {m}
  ,                                       !- Space Type Name
  ,                                       !- Default Construction Set Name
  ,                                       !- Default Schedule Set Name
  1,                                      !- Standards Number of Stories
  1,                                      !- Standards Number of Above Ground Stories
  multifamily,                            !- Standards Building Type
  8;                                      !- Standards Number of Living Units

OS:YearDescription,
  {513d8dda-86cb-442a-b01c-1f7f0e0ac70e}; !- Handle

OS:SimulationControl,
  {2c487a4c-bac9-4ac5-b669-1e49d9da7c2b}, !- Handle
  ,                                       !- Do Zone Sizing Calculation
  ,                                       !- Do System Sizing Calculation
  ,                                       !- Do Plant Sizing Calculation
  No,                                     !- Run Simulation for Sizing Periods
  ;                                       !- Run Simulation for Weather File Run Periods

OS:Timestep,
  {4ebc9f1e-4707-402e-9844-67eb1ffbd522}, !- Handle
  6;                                      !- Number of Timesteps per Hour

OS:RunPeriod,
  {28df894d-6af9-4fb8-8f56-df1753344aa3}, !- Handle
  Run Period,                             !- Name
  1,                                      !- Begin Month
  1,                                      !- Begin Day of Month
  12,                                     !- End Month
  31,                                     !- End Day of Month
  ,                                       !- Use Weather File Holidays and Special Days
  ,                                       !- Use Weather File Daylight Saving Period
  ,                                       !- Apply Weekend Holiday Rule
  ,                                       !- Use Weather File Rain Indicators
  ,                                       !- Use Weather File Snow Indicators
  ;                                       !- Number of Times Runperiod to be Repeated

OS:Sizing:Parameters,
  {dde5af6f-7923-4600-a28a-7556673a0266}, !- Handle
  1.0,                                    !- Heating Sizing Factor
  1.0;                                    !- Cooling Sizing Factor

OS:ShadowCalculation,
  {ca758bea-4416-4626-9bba-3d8795c79bd6}, !- Handle
  20,                                     !- Calculation Frequency
  200;                                    !- Maximum Figures in Shadow Overlap Calculations

OS:SurfaceConvectionAlgorithm:Inside,
  {aaabfc36-718a-4ab0-b622-f186ebb45230}, !- Handle
  TARP;                                   !- Algorithm

OS:SurfaceConvectionAlgorithm:Outside,
  {9a0a9f6f-4bbd-4b12-a121-9492a1fcd7d6}, !- Handle
  DOE-2;                                  !- Algorithm

OS:HeatBalanceAlgorithm,
  {9d93e563-e1e0-46d7-9e39-d1c8aceb7212}, !- Handle
  ConductionTransferFunction,             !- Algorithm
  200;                                    !- Surface Temperature Upper Limit {C}

OS:ZoneCapacitanceMultiplier:ResearchSpecial,
  {6bfced16-b16f-47f6-8223-f7e267d75d19}, !- Handle
  ,                                       !- Temperature Capacity Multiplier
  15,                                     !- Humidity Capacity Multiplier
  ;                                       !- Carbon Dioxide Capacity Multiplier

OS:ThermalZone,
  {0d60806b-fa45-49f1-b0f9-6a8c96bb4654}, !- Handle
  living zone,                            !- Name
  ,                                       !- Multiplier
  ,                                       !- Ceiling Height {m}
  ,                                       !- Volume {m3}
  ,                                       !- Floor Area {m2}
  ,                                       !- Zone Inside Convection Algorithm
  ,                                       !- Zone Outside Convection Algorithm
  ,                                       !- Zone Conditioning Equipment List Name
  {a88c6f03-2bfc-4f1b-9f38-b771565b404e}, !- Zone Air Inlet Port List
  {ceaa1152-b78d-4fe9-ad92-76be902a7af8}, !- Zone Air Exhaust Port List
  {01ee528c-955a-46a6-b176-4435848fd4f2}, !- Zone Air Node Name
  {d060a9b0-cd12-40dc-b643-a3e3f036b329}, !- Zone Return Air Node Name
  ,                                       !- Primary Daylighting Control Name
  ,                                       !- Fraction of Zone Controlled by Primary Daylighting Control
  ,                                       !- Secondary Daylighting Control Name
  ,                                       !- Fraction of Zone Controlled by Secondary Daylighting Control
  ,                                       !- Illuminance Map Name
  ,                                       !- Group Rendering Name
  ,                                       !- Thermostat Name
  No;                                     !- Use Ideal Air Loads

OS:Node,
  {6d35b0f0-c1f7-4494-93b0-25c082928499}, !- Handle
  Node 1,                                 !- Name
  {01ee528c-955a-46a6-b176-4435848fd4f2}, !- Inlet Port
  ;                                       !- Outlet Port

OS:Connection,
  {01ee528c-955a-46a6-b176-4435848fd4f2}, !- Handle
  {cd701e2f-dbb1-4ca3-b801-5968340237fe}, !- Name
  {0d60806b-fa45-49f1-b0f9-6a8c96bb4654}, !- Source Object
  11,                                     !- Outlet Port
  {6d35b0f0-c1f7-4494-93b0-25c082928499}, !- Target Object
  2;                                      !- Inlet Port

OS:PortList,
  {a88c6f03-2bfc-4f1b-9f38-b771565b404e}, !- Handle
  {58d2073d-5034-417e-a4fc-717a51adb7c9}, !- Name
  {0d60806b-fa45-49f1-b0f9-6a8c96bb4654}, !- HVAC Component
  {6808b9a2-cf7b-4960-a18e-129ae8cab761}; !- Port 1

OS:PortList,
  {ceaa1152-b78d-4fe9-ad92-76be902a7af8}, !- Handle
  {047c5771-5edf-4d17-8e67-4588f211ea68}, !- Name
  {0d60806b-fa45-49f1-b0f9-6a8c96bb4654}; !- HVAC Component

OS:Sizing:Zone,
  {ec0a305d-b104-4c4b-b62e-8e2fe6c903f0}, !- Handle
  {0d60806b-fa45-49f1-b0f9-6a8c96bb4654}, !- Zone or ZoneList Name
  SupplyAirTemperature,                   !- Zone Cooling Design Supply Air Temperature Input Method
  14,                                     !- Zone Cooling Design Supply Air Temperature {C}
  11.11,                                  !- Zone Cooling Design Supply Air Temperature Difference {deltaC}
  SupplyAirTemperature,                   !- Zone Heating Design Supply Air Temperature Input Method
  40,                                     !- Zone Heating Design Supply Air Temperature {C}
  11.11,                                  !- Zone Heating Design Supply Air Temperature Difference {deltaC}
  0.0085,                                 !- Zone Cooling Design Supply Air Humidity Ratio {kg-H2O/kg-air}
  0.008,                                  !- Zone Heating Design Supply Air Humidity Ratio {kg-H2O/kg-air}
  ,                                       !- Zone Heating Sizing Factor
  ,                                       !- Zone Cooling Sizing Factor
  DesignDay,                              !- Cooling Design Air Flow Method
  ,                                       !- Cooling Design Air Flow Rate {m3/s}
  ,                                       !- Cooling Minimum Air Flow per Zone Floor Area {m3/s-m2}
  ,                                       !- Cooling Minimum Air Flow {m3/s}
  ,                                       !- Cooling Minimum Air Flow Fraction
  DesignDay,                              !- Heating Design Air Flow Method
  ,                                       !- Heating Design Air Flow Rate {m3/s}
  ,                                       !- Heating Maximum Air Flow per Zone Floor Area {m3/s-m2}
  ,                                       !- Heating Maximum Air Flow {m3/s}
  ,                                       !- Heating Maximum Air Flow Fraction
  ,                                       !- Design Zone Air Distribution Effectiveness in Cooling Mode
  ,                                       !- Design Zone Air Distribution Effectiveness in Heating Mode
  No,                                     !- Account for Dedicated Outdoor Air System
  NeutralSupplyAir,                       !- Dedicated Outdoor Air System Control Strategy
  autosize,                               !- Dedicated Outdoor Air Low Setpoint Temperature for Design {C}
  autosize;                               !- Dedicated Outdoor Air High Setpoint Temperature for Design {C}

OS:ZoneHVAC:EquipmentList,
  {91615a32-f9ae-4d56-9fbd-0b109d6fc81a}, !- Handle
  Zone HVAC Equipment List 1,             !- Name
  {0d60806b-fa45-49f1-b0f9-6a8c96bb4654}, !- Thermal Zone
  {def9a52e-12d9-4395-99d3-1b6bcc914a4e}, !- Zone Equipment 1
  1,                                      !- Zone Equipment Cooling Sequence 1
  1;                                      !- Zone Equipment Heating or No-Load Sequence 1

OS:Space,
  {ebb22bba-b4b6-4814-80f7-20e830985c9f}, !- Handle
  living space,                           !- Name
  ,                                       !- Space Type Name
  ,                                       !- Default Construction Set Name
  ,                                       !- Default Schedule Set Name
  ,                                       !- Direction of Relative North {deg}
  ,                                       !- X Origin {m}
  ,                                       !- Y Origin {m}
  ,                                       !- Z Origin {m}
  ,                                       !- Building Story Name
  {0d60806b-fa45-49f1-b0f9-6a8c96bb4654}, !- Thermal Zone Name
  ,                                       !- Part of Total Floor Area
  ,                                       !- Design Specification Outdoor Air Object Name
  {6865d519-aa40-498f-8d91-0d79c86f2c89}; !- Building Unit Name

OS:Surface,
  {933db6f2-0596-463e-aca8-6c537c57bc77}, !- Handle
  Surface 1,                              !- Name
  Floor,                                  !- Surface Type
  ,                                       !- Construction Name
  {ebb22bba-b4b6-4814-80f7-20e830985c9f}, !- Space Name
  Ground,                                 !- Outside Boundary Condition
  ,                                       !- Outside Boundary Condition Object
  NoSun,                                  !- Sun Exposure
  NoWind,                                 !- Wind Exposure
  ,                                       !- View Factor to Ground
  ,                                       !- Number of Vertices
  0, -12.9315688143396, 0,                !- X,Y,Z Vertex 1 {m}
  0, 0, 0,                                !- X,Y,Z Vertex 2 {m}
  6.46578440716979, 0, 0,                 !- X,Y,Z Vertex 3 {m}
  6.46578440716979, -12.9315688143396, 0; !- X,Y,Z Vertex 4 {m}

OS:Surface,
  {62c14820-b490-4e9c-acdc-d36e73c6f6b3}, !- Handle
  Surface 2,                              !- Name
  Wall,                                   !- Surface Type
  ,                                       !- Construction Name
  {ebb22bba-b4b6-4814-80f7-20e830985c9f}, !- Space Name
  Outdoors,                               !- Outside Boundary Condition
  ,                                       !- Outside Boundary Condition Object
  SunExposed,                             !- Sun Exposure
  WindExposed,                            !- Wind Exposure
  ,                                       !- View Factor to Ground
  ,                                       !- Number of Vertices
  0, 0, 2.4384,                           !- X,Y,Z Vertex 1 {m}
  0, 0, 0,                                !- X,Y,Z Vertex 2 {m}
  0, -12.9315688143396, 0,                !- X,Y,Z Vertex 3 {m}
  0, -12.9315688143396, 2.4384;           !- X,Y,Z Vertex 4 {m}

OS:Surface,
  {167cfd76-6454-44a1-9ff4-3158d3a39050}, !- Handle
  Surface 3,                              !- Name
  Wall,                                   !- Surface Type
  ,                                       !- Construction Name
  {ebb22bba-b4b6-4814-80f7-20e830985c9f}, !- Space Name
  Adiabatic,                              !- Outside Boundary Condition
  ,                                       !- Outside Boundary Condition Object
  NoSun,                                  !- Sun Exposure
  NoWind,                                 !- Wind Exposure
  ,                                       !- View Factor to Ground
  ,                                       !- Number of Vertices
  6.46578440716979, 0, 2.4384,            !- X,Y,Z Vertex 1 {m}
  6.46578440716979, 0, 0,                 !- X,Y,Z Vertex 2 {m}
  0, 0, 0,                                !- X,Y,Z Vertex 3 {m}
  0, 0, 2.4384;                           !- X,Y,Z Vertex 4 {m}

OS:Surface,
  {5c3aff08-73e0-4de0-ba57-d6706b009056}, !- Handle
  Surface 4,                              !- Name
  Wall,                                   !- Surface Type
  ,                                       !- Construction Name
  {ebb22bba-b4b6-4814-80f7-20e830985c9f}, !- Space Name
  Surface,                                !- Outside Boundary Condition
  {3102a05a-2b1b-4b6d-bd82-6458b5e4cbe8}, !- Outside Boundary Condition Object
  NoSun,                                  !- Sun Exposure
  NoWind,                                 !- Wind Exposure
  ,                                       !- View Factor to Ground
  ,                                       !- Number of Vertices
  6.46578440716979, -12.9315688143396, 2.4384, !- X,Y,Z Vertex 1 {m}
  6.46578440716979, -12.9315688143396, 0, !- X,Y,Z Vertex 2 {m}
  6.46578440716979, 0, 0,                 !- X,Y,Z Vertex 3 {m}
  6.46578440716979, 0, 2.4384;            !- X,Y,Z Vertex 4 {m}

OS:Surface,
  {87da21d7-4f5e-493b-b60a-d43372a404c1}, !- Handle
  Surface 5,                              !- Name
  Wall,                                   !- Surface Type
  ,                                       !- Construction Name
  {ebb22bba-b4b6-4814-80f7-20e830985c9f}, !- Space Name
  Outdoors,                               !- Outside Boundary Condition
  ,                                       !- Outside Boundary Condition Object
  SunExposed,                             !- Sun Exposure
  WindExposed,                            !- Wind Exposure
  ,                                       !- View Factor to Ground
  ,                                       !- Number of Vertices
  0, -12.9315688143396, 2.4384,           !- X,Y,Z Vertex 1 {m}
  0, -12.9315688143396, 0,                !- X,Y,Z Vertex 2 {m}
  6.46578440716979, -12.9315688143396, 0, !- X,Y,Z Vertex 3 {m}
  6.46578440716979, -12.9315688143396, 2.4384; !- X,Y,Z Vertex 4 {m}

OS:Surface,
  {25af6308-9460-46cb-9211-88831d478a0d}, !- Handle
  Surface 6,                              !- Name
  RoofCeiling,                            !- Surface Type
  ,                                       !- Construction Name
  {ebb22bba-b4b6-4814-80f7-20e830985c9f}, !- Space Name
  Outdoors,                               !- Outside Boundary Condition
  ,                                       !- Outside Boundary Condition Object
  SunExposed,                             !- Sun Exposure
  WindExposed,                            !- Wind Exposure
  ,                                       !- View Factor to Ground
  ,                                       !- Number of Vertices
  6.46578440716979, -12.9315688143396, 2.4384, !- X,Y,Z Vertex 1 {m}
  6.46578440716979, 0, 2.4384,            !- X,Y,Z Vertex 2 {m}
  0, 0, 2.4384,                           !- X,Y,Z Vertex 3 {m}
  0, -12.9315688143396, 2.4384;           !- X,Y,Z Vertex 4 {m}

OS:ThermalZone,
  {7192f848-e35f-4c05-ab76-b4ddf4fd4ddf}, !- Handle
  living zone|unit 2,                     !- Name
  ,                                       !- Multiplier
  ,                                       !- Ceiling Height {m}
  ,                                       !- Volume {m3}
  ,                                       !- Floor Area {m2}
  ,                                       !- Zone Inside Convection Algorithm
  ,                                       !- Zone Outside Convection Algorithm
  ,                                       !- Zone Conditioning Equipment List Name
  {3ced51fb-d01c-408e-b406-90cef5ac7c68}, !- Zone Air Inlet Port List
  {70998342-4e3e-4c27-925c-24a8681d1888}, !- Zone Air Exhaust Port List
  {5986acb9-f5d3-4b74-a550-62024980bf4f}, !- Zone Air Node Name
  {72c672a3-3bce-4523-84d2-43363ccc2faa}, !- Zone Return Air Node Name
  ,                                       !- Primary Daylighting Control Name
  ,                                       !- Fraction of Zone Controlled by Primary Daylighting Control
  ,                                       !- Secondary Daylighting Control Name
  ,                                       !- Fraction of Zone Controlled by Secondary Daylighting Control
  ,                                       !- Illuminance Map Name
  ,                                       !- Group Rendering Name
  ,                                       !- Thermostat Name
  No;                                     !- Use Ideal Air Loads

OS:Node,
  {04bd6e86-27ea-4598-9539-d89a941b4efc}, !- Handle
  Node 2,                                 !- Name
  {5986acb9-f5d3-4b74-a550-62024980bf4f}, !- Inlet Port
  ;                                       !- Outlet Port

OS:Connection,
  {5986acb9-f5d3-4b74-a550-62024980bf4f}, !- Handle
  {62e94d01-2a77-414f-b9d0-9c30375a845a}, !- Name
  {7192f848-e35f-4c05-ab76-b4ddf4fd4ddf}, !- Source Object
  11,                                     !- Outlet Port
  {04bd6e86-27ea-4598-9539-d89a941b4efc}, !- Target Object
  2;                                      !- Inlet Port

OS:PortList,
  {3ced51fb-d01c-408e-b406-90cef5ac7c68}, !- Handle
  {bbe5dd20-2bcf-4df7-abd3-0c0e027ff5ae}, !- Name
  {7192f848-e35f-4c05-ab76-b4ddf4fd4ddf}, !- HVAC Component
  {f9b94e7b-e590-4843-8082-cf18163a6dc3}; !- Port 1

OS:PortList,
  {70998342-4e3e-4c27-925c-24a8681d1888}, !- Handle
  {82896780-0b86-4395-a0d1-10020e2c0a4f}, !- Name
  {7192f848-e35f-4c05-ab76-b4ddf4fd4ddf}; !- HVAC Component

OS:Sizing:Zone,
  {c3a0f05b-abc7-444c-9989-cad2f48585ca}, !- Handle
  {7192f848-e35f-4c05-ab76-b4ddf4fd4ddf}, !- Zone or ZoneList Name
  SupplyAirTemperature,                   !- Zone Cooling Design Supply Air Temperature Input Method
  14,                                     !- Zone Cooling Design Supply Air Temperature {C}
  11.11,                                  !- Zone Cooling Design Supply Air Temperature Difference {deltaC}
  SupplyAirTemperature,                   !- Zone Heating Design Supply Air Temperature Input Method
  40,                                     !- Zone Heating Design Supply Air Temperature {C}
  11.11,                                  !- Zone Heating Design Supply Air Temperature Difference {deltaC}
  0.0085,                                 !- Zone Cooling Design Supply Air Humidity Ratio {kg-H2O/kg-air}
  0.008,                                  !- Zone Heating Design Supply Air Humidity Ratio {kg-H2O/kg-air}
  ,                                       !- Zone Heating Sizing Factor
  ,                                       !- Zone Cooling Sizing Factor
  DesignDay,                              !- Cooling Design Air Flow Method
  ,                                       !- Cooling Design Air Flow Rate {m3/s}
  ,                                       !- Cooling Minimum Air Flow per Zone Floor Area {m3/s-m2}
  ,                                       !- Cooling Minimum Air Flow {m3/s}
  ,                                       !- Cooling Minimum Air Flow Fraction
  DesignDay,                              !- Heating Design Air Flow Method
  ,                                       !- Heating Design Air Flow Rate {m3/s}
  ,                                       !- Heating Maximum Air Flow per Zone Floor Area {m3/s-m2}
  ,                                       !- Heating Maximum Air Flow {m3/s}
  ,                                       !- Heating Maximum Air Flow Fraction
  ,                                       !- Design Zone Air Distribution Effectiveness in Cooling Mode
  ,                                       !- Design Zone Air Distribution Effectiveness in Heating Mode
  No,                                     !- Account for Dedicated Outdoor Air System
  NeutralSupplyAir,                       !- Dedicated Outdoor Air System Control Strategy
  autosize,                               !- Dedicated Outdoor Air Low Setpoint Temperature for Design {C}
  autosize;                               !- Dedicated Outdoor Air High Setpoint Temperature for Design {C}

OS:ZoneHVAC:EquipmentList,
  {abaeac3c-d0c7-43a5-bd84-59311522a676}, !- Handle
  Zone HVAC Equipment List 2,             !- Name
  {7192f848-e35f-4c05-ab76-b4ddf4fd4ddf}, !- Thermal Zone
  {0834611c-ed4a-42b5-890d-0f5af2bd914d}, !- Zone Equipment 1
  1,                                      !- Zone Equipment Cooling Sequence 1
  1;                                      !- Zone Equipment Heating or No-Load Sequence 1

OS:Space,
  {6d5b41c3-930b-4312-b8e5-e9f971eeaa63}, !- Handle
  living space|unit 2,                    !- Name
  ,                                       !- Space Type Name
  ,                                       !- Default Construction Set Name
  ,                                       !- Default Schedule Set Name
  ,                                       !- Direction of Relative North {deg}
  ,                                       !- X Origin {m}
  ,                                       !- Y Origin {m}
  ,                                       !- Z Origin {m}
  ,                                       !- Building Story Name
  {7192f848-e35f-4c05-ab76-b4ddf4fd4ddf}, !- Thermal Zone Name
  ,                                       !- Part of Total Floor Area
  ,                                       !- Design Specification Outdoor Air Object Name
  {9e278231-28b1-4866-946f-36b245ff135a}; !- Building Unit Name

OS:Surface,
  {6b29f272-1c6c-46fc-890f-41f66260f449}, !- Handle
  Surface 7,                              !- Name
  Floor,                                  !- Surface Type
  ,                                       !- Construction Name
  {6d5b41c3-930b-4312-b8e5-e9f971eeaa63}, !- Space Name
  Ground,                                 !- Outside Boundary Condition
  ,                                       !- Outside Boundary Condition Object
  NoSun,                                  !- Sun Exposure
  NoWind,                                 !- Wind Exposure
  ,                                       !- View Factor to Ground
  ,                                       !- Number of Vertices
  0, 3.048, 0,                            !- X,Y,Z Vertex 1 {m}
  0, 15.9795688143396, 0,                 !- X,Y,Z Vertex 2 {m}
  6.46578440716979, 15.9795688143396, 0,  !- X,Y,Z Vertex 3 {m}
  6.46578440716979, 3.048, 0;             !- X,Y,Z Vertex 4 {m}

OS:Surface,
  {f845de82-1cf3-4ca9-bd97-d5e1ea3f9150}, !- Handle
  Surface 8,                              !- Name
  Wall,                                   !- Surface Type
  ,                                       !- Construction Name
  {6d5b41c3-930b-4312-b8e5-e9f971eeaa63}, !- Space Name
  Outdoors,                               !- Outside Boundary Condition
  ,                                       !- Outside Boundary Condition Object
  SunExposed,                             !- Sun Exposure
  WindExposed,                            !- Wind Exposure
  ,                                       !- View Factor to Ground
  ,                                       !- Number of Vertices
  0, 15.9795688143396, 2.4384,            !- X,Y,Z Vertex 1 {m}
  0, 15.9795688143396, 0,                 !- X,Y,Z Vertex 2 {m}
  0, 3.048, 0,                            !- X,Y,Z Vertex 3 {m}
  0, 3.048, 2.4384;                       !- X,Y,Z Vertex 4 {m}

OS:Surface,
  {9dda1edb-8238-4b38-a8ef-0a5e7a459a2f}, !- Handle
  Surface 9,                              !- Name
  Wall,                                   !- Surface Type
  ,                                       !- Construction Name
  {6d5b41c3-930b-4312-b8e5-e9f971eeaa63}, !- Space Name
  Outdoors,                               !- Outside Boundary Condition
  ,                                       !- Outside Boundary Condition Object
  SunExposed,                             !- Sun Exposure
  WindExposed,                            !- Wind Exposure
  ,                                       !- View Factor to Ground
  ,                                       !- Number of Vertices
  6.46578440716979, 15.9795688143396, 2.4384, !- X,Y,Z Vertex 1 {m}
  6.46578440716979, 15.9795688143396, 0,  !- X,Y,Z Vertex 2 {m}
  0, 15.9795688143396, 0,                 !- X,Y,Z Vertex 3 {m}
  0, 15.9795688143396, 2.4384;            !- X,Y,Z Vertex 4 {m}

OS:Surface,
  {f37d6913-7baa-4f3d-964b-ee3f59cb4874}, !- Handle
  Surface 10,                             !- Name
  Wall,                                   !- Surface Type
  ,                                       !- Construction Name
  {6d5b41c3-930b-4312-b8e5-e9f971eeaa63}, !- Space Name
  Surface,                                !- Outside Boundary Condition
  {acb9b299-c81c-4f91-9035-0652bf789b46}, !- Outside Boundary Condition Object
  NoSun,                                  !- Sun Exposure
  NoWind,                                 !- Wind Exposure
  ,                                       !- View Factor to Ground
  ,                                       !- Number of Vertices
  6.46578440716979, 3.048, 2.4384,        !- X,Y,Z Vertex 1 {m}
  6.46578440716979, 3.048, 0,             !- X,Y,Z Vertex 2 {m}
  6.46578440716979, 15.9795688143396, 0,  !- X,Y,Z Vertex 3 {m}
  6.46578440716979, 15.9795688143396, 2.4384; !- X,Y,Z Vertex 4 {m}

OS:Surface,
  {686e3692-a913-4010-bc0f-e1412604b3be}, !- Handle
  Surface 11,                             !- Name
  Wall,                                   !- Surface Type
  ,                                       !- Construction Name
  {6d5b41c3-930b-4312-b8e5-e9f971eeaa63}, !- Space Name
  Adiabatic,                              !- Outside Boundary Condition
  ,                                       !- Outside Boundary Condition Object
  NoSun,                                  !- Sun Exposure
  NoWind,                                 !- Wind Exposure
  ,                                       !- View Factor to Ground
  ,                                       !- Number of Vertices
  0, 3.048, 2.4384,                       !- X,Y,Z Vertex 1 {m}
  0, 3.048, 0,                            !- X,Y,Z Vertex 2 {m}
  6.46578440716979, 3.048, 0,             !- X,Y,Z Vertex 3 {m}
  6.46578440716979, 3.048, 2.4384;        !- X,Y,Z Vertex 4 {m}

OS:Surface,
  {da5739c3-500f-4074-9ac1-23cd11f47702}, !- Handle
  Surface 12,                             !- Name
  RoofCeiling,                            !- Surface Type
  ,                                       !- Construction Name
  {6d5b41c3-930b-4312-b8e5-e9f971eeaa63}, !- Space Name
  Outdoors,                               !- Outside Boundary Condition
  ,                                       !- Outside Boundary Condition Object
  SunExposed,                             !- Sun Exposure
  WindExposed,                            !- Wind Exposure
  ,                                       !- View Factor to Ground
  ,                                       !- Number of Vertices
  6.46578440716979, 3.048, 2.4384,        !- X,Y,Z Vertex 1 {m}
  6.46578440716979, 15.9795688143396, 2.4384, !- X,Y,Z Vertex 2 {m}
  0, 15.9795688143396, 2.4384,            !- X,Y,Z Vertex 3 {m}
  0, 3.048, 2.4384;                       !- X,Y,Z Vertex 4 {m}

OS:ThermalZone,
  {e9f8701c-01ee-4e84-8937-3ae83702ad91}, !- Handle
  living zone|unit 3,                     !- Name
  ,                                       !- Multiplier
  ,                                       !- Ceiling Height {m}
  ,                                       !- Volume {m3}
  ,                                       !- Floor Area {m2}
  ,                                       !- Zone Inside Convection Algorithm
  ,                                       !- Zone Outside Convection Algorithm
  ,                                       !- Zone Conditioning Equipment List Name
  {aa317479-b4d9-4773-9b90-eb1700ef8317}, !- Zone Air Inlet Port List
  {5f4c8bcd-92fc-40d6-a37d-80af16bf0c26}, !- Zone Air Exhaust Port List
  {a7d2edb0-4bdc-4464-9e8f-feac4208d2eb}, !- Zone Air Node Name
  {3c705d66-b551-4117-bc4f-37d51d99e526}, !- Zone Return Air Node Name
  ,                                       !- Primary Daylighting Control Name
  ,                                       !- Fraction of Zone Controlled by Primary Daylighting Control
  ,                                       !- Secondary Daylighting Control Name
  ,                                       !- Fraction of Zone Controlled by Secondary Daylighting Control
  ,                                       !- Illuminance Map Name
  ,                                       !- Group Rendering Name
  ,                                       !- Thermostat Name
  No;                                     !- Use Ideal Air Loads

OS:Node,
  {f9c77c83-7cc8-4291-9cf0-197f56e835c1}, !- Handle
  Node 3,                                 !- Name
  {a7d2edb0-4bdc-4464-9e8f-feac4208d2eb}, !- Inlet Port
  ;                                       !- Outlet Port

OS:Connection,
  {a7d2edb0-4bdc-4464-9e8f-feac4208d2eb}, !- Handle
  {ef311442-bd40-4c63-aa34-7d0a2f87dafa}, !- Name
  {e9f8701c-01ee-4e84-8937-3ae83702ad91}, !- Source Object
  11,                                     !- Outlet Port
  {f9c77c83-7cc8-4291-9cf0-197f56e835c1}, !- Target Object