!- NOTE: Auto-generated from /test/osw_files/SFD_2000sqft_2story_UB_GRG_UA.osw

OS:Version,
  {a1010883-1b85-4f0c-b1d5-160f74e177bb}, !- Handle
  2.4.0;                                  !- Version Identifier

OS:Building,
  {bf305633-c5a1-4881-9edf-ca5e1a8e1274}, !- Handle
  Building,                               !- Name
  ,                                       !- Building Sector Type
  ,                                       !- North Axis {deg}
  ,                                       !- Nominal Floor to Floor Height {m}
  ,                                       !- Space Type Name
  ,                                       !- Default Construction Set Name
  ,                                       !- Default Schedule Set Name
  2,                                      !- Standards Number of Stories
  2,                                      !- Standards Number of Above Ground Stories
  singlefamilydetached,                   !- Standards Building Type
  1;                                      !- Standards Number of Living Units

OS:YearDescription,
  {513d8dda-86cb-442a-b01c-1f7f0e0ac70e}; !- Handle

OS:SimulationControl,
  {2c487a4c-bac9-4ac5-b669-1e49d9da7c2b}, !- Handle
  ,                                       !- Do Zone Sizing Calculation
  ,                                       !- Do System Sizing Calculation
  ,                                       !- Do Plant Sizing Calculation
  No,                                     !- Run Simulation for Sizing Periods
  ;                                       !- Run Simulation for Weather File Run Periods

OS:Timestep,
  {4ebc9f1e-4707-402e-9844-67eb1ffbd522}, !- Handle
  6;                                      !- Number of Timesteps per Hour

OS:RunPeriod,
  {28df894d-6af9-4fb8-8f56-df1753344aa3}, !- Handle
  Run Period,                             !- Name
  1,                                      !- Begin Month
  1,                                      !- Begin Day of Month
  12,                                     !- End Month
  31,                                     !- End Day of Month
  ,                                       !- Use Weather File Holidays and Special Days
  ,                                       !- Use Weather File Daylight Saving Period
  ,                                       !- Apply Weekend Holiday Rule
  ,                                       !- Use Weather File Rain Indicators
  ,                                       !- Use Weather File Snow Indicators
  ;                                       !- Number of Times Runperiod to be Repeated

OS:Sizing:Parameters,
  {dde5af6f-7923-4600-a28a-7556673a0266}, !- Handle
  1.0,                                    !- Heating Sizing Factor
  1.0;                                    !- Cooling Sizing Factor

OS:ShadowCalculation,
  {ca758bea-4416-4626-9bba-3d8795c79bd6}, !- Handle
  20,                                     !- Calculation Frequency
  200;                                    !- Maximum Figures in Shadow Overlap Calculations

OS:SurfaceConvectionAlgorithm:Inside,
  {aaabfc36-718a-4ab0-b622-f186ebb45230}, !- Handle
  TARP;                                   !- Algorithm

OS:SurfaceConvectionAlgorithm:Outside,
  {9a0a9f6f-4bbd-4b12-a121-9492a1fcd7d6}, !- Handle
  DOE-2;                                  !- Algorithm

OS:HeatBalanceAlgorithm,
  {9d93e563-e1e0-46d7-9e39-d1c8aceb7212}, !- Handle
  ConductionTransferFunction,             !- Algorithm
  200;                                    !- Surface Temperature Upper Limit {C}

OS:ZoneCapacitanceMultiplier:ResearchSpecial,
  {6bfced16-b16f-47f6-8223-f7e267d75d19}, !- Handle
  ,                                       !- Temperature Capacity Multiplier
  15,                                     !- Humidity Capacity Multiplier
  ;                                       !- Carbon Dioxide Capacity Multiplier

OS:ThermalZone,
  {bbdf9b27-c19b-45f0-b90c-9609ac78a2ae}, !- Handle
  living zone,                            !- Name
  ,                                       !- Multiplier
  ,                                       !- Ceiling Height {m}
  ,                                       !- Volume {m3}
  ,                                       !- Floor Area {m2}
  ,                                       !- Zone Inside Convection Algorithm
  ,                                       !- Zone Outside Convection Algorithm
  ,                                       !- Zone Conditioning Equipment List Name
  {94da29ae-4b1c-4bb4-8ead-50ce99ed8249}, !- Zone Air Inlet Port List
  {ff6085e8-a945-4ad1-ace4-f2cea19a98b5}, !- Zone Air Exhaust Port List
  {5d9aef92-8e9a-4668-a822-8f1634259b54}, !- Zone Air Node Name
  ,                                       !- Zone Return Air Node Name
  ,                                       !- Primary Daylighting Control Name
  ,                                       !- Fraction of Zone Controlled by Primary Daylighting Control
  ,                                       !- Secondary Daylighting Control Name
  ,                                       !- Fraction of Zone Controlled by Secondary Daylighting Control
  ,                                       !- Illuminance Map Name
  ,                                       !- Group Rendering Name
  ,                                       !- Thermostat Name
  No;                                     !- Use Ideal Air Loads

OS:Node,
  {1ca02e84-041a-4670-9127-6d7b63a75bc0}, !- Handle
  Node 1,                                 !- Name
  {5d9aef92-8e9a-4668-a822-8f1634259b54}, !- Inlet Port
  ;                                       !- Outlet Port

OS:Connection,
  {5d9aef92-8e9a-4668-a822-8f1634259b54}, !- Handle
  {90d4476a-85fc-437c-9ee9-55891dda566a}, !- Name
  {bbdf9b27-c19b-45f0-b90c-9609ac78a2ae}, !- Source Object
  11,                                     !- Outlet Port
  {1ca02e84-041a-4670-9127-6d7b63a75bc0}, !- Target Object
  2;                                      !- Inlet Port

OS:PortList,
  {94da29ae-4b1c-4bb4-8ead-50ce99ed8249}, !- Handle
  {5bdaec5e-d8f0-4714-8f3d-e531c785b864}, !- Name
  {bbdf9b27-c19b-45f0-b90c-9609ac78a2ae}; !- HVAC Component

OS:PortList,
  {ff6085e8-a945-4ad1-ace4-f2cea19a98b5}, !- Handle
  {04a6d24f-33d0-4f50-93cf-003e85ecec4e}, !- Name
  {bbdf9b27-c19b-45f0-b90c-9609ac78a2ae}; !- HVAC Component

OS:Sizing:Zone,
  {f162a202-0397-4c4b-ae9d-5820e192006e}, !- Handle
  {bbdf9b27-c19b-45f0-b90c-9609ac78a2ae}, !- Zone or ZoneList Name
  SupplyAirTemperature,                   !- Zone Cooling Design Supply Air Temperature Input Method
  14,                                     !- Zone Cooling Design Supply Air Temperature {C}
  11.11,                                  !- Zone Cooling Design Supply Air Temperature Difference {deltaC}
  SupplyAirTemperature,                   !- Zone Heating Design Supply Air Temperature Input Method
  40,                                     !- Zone Heating Design Supply Air Temperature {C}
  11.11,                                  !- Zone Heating Design Supply Air Temperature Difference {deltaC}
  0.0085,                                 !- Zone Cooling Design Supply Air Humidity Ratio {kg-H2O/kg-air}
  0.008,                                  !- Zone Heating Design Supply Air Humidity Ratio {kg-H2O/kg-air}
  ,                                       !- Zone Heating Sizing Factor
  ,                                       !- Zone Cooling Sizing Factor
  DesignDay,                              !- Cooling Design Air Flow Method
  ,                                       !- Cooling Design Air Flow Rate {m3/s}
  ,                                       !- Cooling Minimum Air Flow per Zone Floor Area {m3/s-m2}
  ,                                       !- Cooling Minimum Air Flow {m3/s}
  ,                                       !- Cooling Minimum Air Flow Fraction
  DesignDay,                              !- Heating Design Air Flow Method
  ,                                       !- Heating Design Air Flow Rate {m3/s}
  ,                                       !- Heating Maximum Air Flow per Zone Floor Area {m3/s-m2}
  ,                                       !- Heating Maximum Air Flow {m3/s}
  ,                                       !- Heating Maximum Air Flow Fraction
  ,                                       !- Design Zone Air Distribution Effectiveness in Cooling Mode
  ,                                       !- Design Zone Air Distribution Effectiveness in Heating Mode
  No,                                     !- Account for Dedicated Outdoor Air System
  NeutralSupplyAir,                       !- Dedicated Outdoor Air System Control Strategy
  autosize,                               !- Dedicated Outdoor Air Low Setpoint Temperature for Design {C}
  autosize;                               !- Dedicated Outdoor Air High Setpoint Temperature for Design {C}

OS:ZoneHVAC:EquipmentList,
  {49f237fb-79d1-49a5-ad2c-99bf70c399de}, !- Handle
  Zone HVAC Equipment List 1,             !- Name
  {bbdf9b27-c19b-45f0-b90c-9609ac78a2ae}; !- Thermal Zone

OS:ThermalZone,
  {45c3f9ee-b8b0-46f1-b863-83cc77d54cec}, !- Handle
  garage zone,                            !- Name
  ,                                       !- Multiplier
  ,                                       !- Ceiling Height {m}
  ,                                       !- Volume {m3}
  ,                                       !- Floor Area {m2}
  ,                                       !- Zone Inside Convection Algorithm
  ,                                       !- Zone Outside Convection Algorithm
  ,                                       !- Zone Conditioning Equipment List Name
  {565cf88f-77ca-4a63-849e-7fbdaf949253}, !- Zone Air Inlet Port List
  {03a5434d-9975-4364-92ff-89558177e59d}, !- Zone Air Exhaust Port List
  {9b19e174-e1aa-4f3c-921a-10a09741301a}, !- Zone Air Node Name
  ,                                       !- Zone Return Air Node Name
  ,                                       !- Primary Daylighting Control Name
  ,                                       !- Fraction of Zone Controlled by Primary Daylighting Control
  ,                                       !- Secondary Daylighting Control Name
  ,                                       !- Fraction of Zone Controlled by Secondary Daylighting Control
  ,                                       !- Illuminance Map Name
  ,                                       !- Group Rendering Name
  ,                                       !- Thermostat Name
  No;                                     !- Use Ideal Air Loads

OS:Node,
  {50121f1f-1f3e-4d09-b2bb-094707e0c36b}, !- Handle
  Node 2,                                 !- Name
  {9b19e174-e1aa-4f3c-921a-10a09741301a}, !- Inlet Port
  ;                                       !- Outlet Port

OS:Connection,
  {9b19e174-e1aa-4f3c-921a-10a09741301a}, !- Handle
  {ca3e7e08-3b7b-4c34-a682-d300b5921654}, !- Name
  {45c3f9ee-b8b0-46f1-b863-83cc77d54cec}, !- Source Object
  11,                                     !- Outlet Port
  {50121f1f-1f3e-4d09-b2bb-094707e0c36b}, !- Target Object
  2;                                      !- Inlet Port

OS:PortList,
  {565cf88f-77ca-4a63-849e-7fbdaf949253}, !- Handle
  {ae612c51-1a6f-4eb8-8d7e-fbbeb98e8b05}, !- Name
  {45c3f9ee-b8b0-46f1-b863-83cc77d54cec}; !- HVAC Component

OS:PortList,
  {03a5434d-9975-4364-92ff-89558177e59d}, !- Handle
  {5a5d03ea-d0ff-4a4d-9fd3-9c6de7a210e8}, !- Name
  {45c3f9ee-b8b0-46f1-b863-83cc77d54cec}; !- HVAC Component

OS:Sizing:Zone,
  {c13ffd98-65da-405b-b259-de2fdc69c51c}, !- Handle
  {45c3f9ee-b8b0-46f1-b863-83cc77d54cec}, !- Zone or ZoneList Name
  SupplyAirTemperature,                   !- Zone Cooling Design Supply Air Temperature Input Method
  14,                                     !- Zone Cooling Design Supply Air Temperature {C}
  11.11,                                  !- Zone Cooling Design Supply Air Temperature Difference {deltaC}
  SupplyAirTemperature,                   !- Zone Heating Design Supply Air Temperature Input Method
  40,                                     !- Zone Heating Design Supply Air Temperature {C}
  11.11,                                  !- Zone Heating Design Supply Air Temperature Difference {deltaC}
  0.0085,                                 !- Zone Cooling Design Supply Air Humidity Ratio {kg-H2O/kg-air}
  0.008,                                  !- Zone Heating Design Supply Air Humidity Ratio {kg-H2O/kg-air}
  ,                                       !- Zone Heating Sizing Factor
  ,                                       !- Zone Cooling Sizing Factor
  DesignDay,                              !- Cooling Design Air Flow Method
  ,                                       !- Cooling Design Air Flow Rate {m3/s}
  ,                                       !- Cooling Minimum Air Flow per Zone Floor Area {m3/s-m2}
  ,                                       !- Cooling Minimum Air Flow {m3/s}
  ,                                       !- Cooling Minimum Air Flow Fraction
  DesignDay,                              !- Heating Design Air Flow Method
  ,                                       !- Heating Design Air Flow Rate {m3/s}
  ,                                       !- Heating Maximum Air Flow per Zone Floor Area {m3/s-m2}
  ,                                       !- Heating Maximum Air Flow {m3/s}
  ,                                       !- Heating Maximum Air Flow Fraction
  ,                                       !- Design Zone Air Distribution Effectiveness in Cooling Mode
  ,                                       !- Design Zone Air Distribution Effectiveness in Heating Mode
  No,                                     !- Account for Dedicated Outdoor Air System
  NeutralSupplyAir,                       !- Dedicated Outdoor Air System Control Strategy
  autosize,                               !- Dedicated Outdoor Air Low Setpoint Temperature for Design {C}
  autosize;                               !- Dedicated Outdoor Air High Setpoint Temperature for Design {C}

OS:ZoneHVAC:EquipmentList,
  {fab36a8f-6e8c-40a8-a4af-6ec8f990ee2c}, !- Handle
  Zone HVAC Equipment List 2,             !- Name
  {45c3f9ee-b8b0-46f1-b863-83cc77d54cec}; !- Thermal Zone

OS:Space,
  {f9314ad4-4bde-4cba-8f47-63b14e38dafd}, !- Handle
  garage space,                           !- Name
  ,                                       !- Space Type Name
  ,                                       !- Default Construction Set Name
  ,                                       !- Default Schedule Set Name
  -0,                                     !- Direction of Relative North {deg}
  0,                                      !- X Origin {m}
  0,                                      !- Y Origin {m}
  0,                                      !- Z Origin {m}
  ,                                       !- Building Story Name
  {45c3f9ee-b8b0-46f1-b863-83cc77d54cec}; !- Thermal Zone Name

OS:Surface,
  {7805d743-2755-49af-aefa-ae7d87638633}, !- Handle
  Surface 1,                              !- Name
  Floor,                                  !- Surface Type
  ,                                       !- Construction Name
  {f9314ad4-4bde-4cba-8f47-63b14e38dafd}, !- Space Name
  Ground,                                 !- Outside Boundary Condition
  ,                                       !- Outside Boundary Condition Object
  NoSun,                                  !- Sun Exposure
  NoWind,                                 !- Wind Exposure
  ,                                       !- View Factor to Ground
  ,                                       !- Number of Vertices
  7.53507039083872, -3.048, 0,            !- X,Y,Z Vertex 1 {m}
  7.53507039083872, 3.048, 0,             !- X,Y,Z Vertex 2 {m}
  13.6310703908387, 3.048, 0,             !- X,Y,Z Vertex 3 {m}
  13.6310703908387, -3.048, 0;            !- X,Y,Z Vertex 4 {m}

OS:Surface,
  {571124af-4b10-4a0c-854f-a9264a69f5fe}, !- Handle
  Surface 2,                              !- Name
  Wall,                                   !- Surface Type
  ,                                       !- Construction Name
  {f9314ad4-4bde-4cba-8f47-63b14e38dafd}, !- Space Name
  Surface,                                !- Outside Boundary Condition
  {733396fd-0fb6-412c-a610-e86274ff6342}, !- Outside Boundary Condition Object
  NoSun,                                  !- Sun Exposure
  NoWind,                                 !- Wind Exposure
  ,                                       !- View Factor to Ground
  ,                                       !- Number of Vertices
  7.53507039083872, 3.048, 2.4384,        !- X,Y,Z Vertex 1 {m}
  7.53507039083872, 3.048, 0,             !- X,Y,Z Vertex 2 {m}
  7.53507039083872, 0, 0,                 !- X,Y,Z Vertex 3 {m}
  7.53507039083872, 0, 2.4384;            !- X,Y,Z Vertex 4 {m}

OS:Surface,
  {601fe9ae-d8c6-4d8f-846a-38ecc5a560b5}, !- Handle
  Surface 3,                              !- Name
  Wall,                                   !- Surface Type
  ,                                       !- Construction Name
  {f9314ad4-4bde-4cba-8f47-63b14e38dafd}, !- Space Name
  Surface,                                !- Outside Boundary Condition
  {0c7a7c6a-4feb-4274-8e46-949c6328cf30}, !- Outside Boundary Condition Object
  NoSun,                                  !- Sun Exposure
  NoWind,                                 !- Wind Exposure
  ,                                       !- View Factor to Ground
  ,                                       !- Number of Vertices
  13.6310703908387, 3.048, 2.4384,        !- X,Y,Z Vertex 1 {m}
  13.6310703908387, 3.048, 0,             !- X,Y,Z Vertex 2 {m}
  7.53507039083872, 3.048, 0,             !- X,Y,Z Vertex 3 {m}
  7.53507039083872, 3.048, 2.4384;        !- X,Y,Z Vertex 4 {m}

OS:Surface,
  {adcf18b4-af30-4f64-bd8f-b69bd3983220}, !- Handle
  Surface 4,                              !- Name
  Wall,                                   !- Surface Type
  ,                                       !- Construction Name
  {f9314ad4-4bde-4cba-8f47-63b14e38dafd}, !- Space Name
  Outdoors,                               !- Outside Boundary Condition
  ,                                       !- Outside Boundary Condition Object
  SunExposed,                             !- Sun Exposure
  WindExposed,                            !- Wind Exposure
  ,                                       !- View Factor to Ground
  ,                                       !- Number of Vertices
  13.6310703908387, -3.048, 2.4384,       !- X,Y,Z Vertex 1 {m}
  13.6310703908387, -3.048, 0,            !- X,Y,Z Vertex 2 {m}
  13.6310703908387, 3.048, 0,             !- X,Y,Z Vertex 3 {m}
  13.6310703908387, 3.048, 2.4384;        !- X,Y,Z Vertex 4 {m}

OS:Surface,
  {5c61dbb1-8430-4b87-a05a-75da6f928ce4}, !- Handle
  Surface 5,                              !- Name
  Wall,                                   !- Surface Type
  ,                                       !- Construction Name
  {f9314ad4-4bde-4cba-8f47-63b14e38dafd}, !- Space Name
  Outdoors,                               !- Outside Boundary Condition
  ,                                       !- Outside Boundary Condition Object
  SunExposed,                             !- Sun Exposure
  WindExposed,                            !- Wind Exposure
  ,                                       !- View Factor to Ground
  ,                                       !- Number of Vertices
  7.53507039083872, -3.048, 2.4384,       !- X,Y,Z Vertex 1 {m}
  7.53507039083872, -3.048, 0,            !- X,Y,Z Vertex 2 {m}
  13.6310703908387, -3.048, 0,            !- X,Y,Z Vertex 3 {m}
  13.6310703908387, -3.048, 2.4384;       !- X,Y,Z Vertex 4 {m}

OS:Surface,
  {1f3b904d-c148-4739-ab51-d5ff8854e185}, !- Handle
  Surface 6,                              !- Name
  RoofCeiling,                            !- Surface Type
  ,                                       !- Construction Name
  {f9314ad4-4bde-4cba-8f47-63b14e38dafd}, !- Space Name
  Surface,                                !- Outside Boundary Condition
  {0e54a93a-c349-4506-963f-ce1e822f9e65}, !- Outside Boundary Condition Object
  NoSun,                                  !- Sun Exposure
  NoWind,                                 !- Wind Exposure
  ,                                       !- View Factor to Ground
  ,                                       !- Number of Vertices
  13.6310703908387, -3.048, 2.4384,       !- X,Y,Z Vertex 1 {m}
  13.6310703908387, 3.048, 2.4384,        !- X,Y,Z Vertex 2 {m}
  7.53507039083872, 3.048, 2.4384,        !- X,Y,Z Vertex 3 {m}
  7.53507039083872, 0, 2.4384,            !- X,Y,Z Vertex 4 {m}
  7.53507039083872, -3.048, 2.4384;       !- X,Y,Z Vertex 5 {m}

OS:Space,
  {f84ffe8f-3018-4e84-95ab-20b599ae1a5a}, !- Handle
  living space,                           !- Name
  ,                                       !- Space Type Name
  ,                                       !- Default Construction Set Name
  ,                                       !- Default Schedule Set Name
  -0,                                     !- Direction of Relative North {deg}
  0,                                      !- X Origin {m}
  0,                                      !- Y Origin {m}
  0,                                      !- Z Origin {m}
  ,                                       !- Building Story Name
  {bbdf9b27-c19b-45f0-b90c-9609ac78a2ae}, !- Thermal Zone Name
  ,                                       !- Part of Total Floor Area
  ,                                       !- Design Specification Outdoor Air Object Name
  {de926476-eacd-434c-944a-715ea03acca3}; !- Building Unit Name

OS:Surface,
  {22182177-e2ac-46f2-a27b-597d084eaa1b}, !- Handle
  Surface 7,                              !- Name
  Floor,                                  !- Surface Type
  ,                                       !- Construction Name
  {f84ffe8f-3018-4e84-95ab-20b599ae1a5a}, !- Space Name
  Surface,                                !- Outside Boundary Condition
  {92a862cc-823a-47e5-aa7f-56266fce3e36}, !- Outside Boundary Condition Object
  NoSun,                                  !- Sun Exposure
  NoWind,                                 !- Wind Exposure
  ,                                       !- View Factor to Ground
  ,                                       !- Number of Vertices
  0, 0, 0,                                !- X,Y,Z Vertex 1 {m}
  0, 6.81553519541936, 0,                 !- X,Y,Z Vertex 2 {m}
  13.6310703908387, 6.81553519541936, 0,  !- X,Y,Z Vertex 3 {m}
  13.6310703908387, 3.048, 0,             !- X,Y,Z Vertex 4 {m}
  7.53507039083872, 3.048, 0,             !- X,Y,Z Vertex 5 {m}
  7.53507039083872, 0, 0;                 !- X,Y,Z Vertex 6 {m}

OS:Surface,
  {7def2164-40a3-4e66-907f-09f74beb639b}, !- Handle
  Surface 8,                              !- Name
  Wall,                                   !- Surface Type
  ,                                       !- Construction Name
  {f84ffe8f-3018-4e84-95ab-20b599ae1a5a}, !- Space Name
  Outdoors,                               !- Outside Boundary Condition
  ,                                       !- Outside Boundary Condition Object
  SunExposed,                             !- Sun Exposure
  WindExposed,                            !- Wind Exposure
  ,                                       !- View Factor to Ground
  ,                                       !- Number of Vertices
  0, 6.81553519541936, 2.4384,            !- X,Y,Z Vertex 1 {m}
  0, 6.81553519541936, 0,                 !- X,Y,Z Vertex 2 {m}
  0, 0, 0,                                !- X,Y,Z Vertex 3 {m}
  0, 0, 2.4384;                           !- X,Y,Z Vertex 4 {m}

OS:Surface,
  {e2ae504e-91af-4166-a10f-3b5311fc086c}, !- Handle
  Surface 9,                              !- Name
  Wall,                                   !- Surface Type
  ,                                       !- Construction Name
  {f84ffe8f-3018-4e84-95ab-20b599ae1a5a}, !- Space Name
  Outdoors,                               !- Outside Boundary Condition
  ,                                       !- Outside Boundary Condition Object
  SunExposed,                             !- Sun Exposure
  WindExposed,                            !- Wind Exposure
  ,                                       !- View Factor to Ground
  ,                                       !- Number of Vertices
  13.6310703908387, 6.81553519541936, 2.4384, !- X,Y,Z Vertex 1 {m}
  13.6310703908387, 6.81553519541936, 0,  !- X,Y,Z Vertex 2 {m}
  0, 6.81553519541936, 0,                 !- X,Y,Z Vertex 3 {m}
  0, 6.81553519541936, 2.4384;            !- X,Y,Z Vertex 4 {m}

OS:Surface,
  {e8c931a6-7011-41e6-bac1-eb3e04cd6b0f}, !- Handle
  Surface 10,                             !- Name
  Wall,                                   !- Surface Type
  ,                                       !- Construction Name
  {f84ffe8f-3018-4e84-95ab-20b599ae1a5a}, !- Space Name
  Outdoors,                               !- Outside Boundary Condition
  ,                                       !- Outside Boundary Condition Object
  SunExposed,                             !- Sun Exposure
  WindExposed,                            !- Wind Exposure
  ,                                       !- View Factor to Ground
  ,                                       !- Number of Vertices
  13.6310703908387, 3.048, 2.4384,        !- X,Y,Z Vertex 1 {m}
  13.6310703908387, 3.048, 0,             !- X,Y,Z Vertex 2 {m}
  13.6310703908387, 6.81553519541936, 0,  !- X,Y,Z Vertex 3 {m}
  13.6310703908387, 6.81553519541936, 2.4384; !- X,Y,Z Vertex 4 {m}

OS:Surface,
  {0c7a7c6a-4feb-4274-8e46-949c6328cf30}, !- Handle
  Surface 11,                             !- Name
  Wall,                                   !- Surface Type
  ,                                       !- Construction Name
  {f84ffe8f-3018-4e84-95ab-20b599ae1a5a}, !- Space Name
  Surface,                                !- Outside Boundary Condition
  {601fe9ae-d8c6-4d8f-846a-38ecc5a560b5}, !- Outside Boundary Condition Object
  NoSun,                                  !- Sun Exposure
  NoWind,                                 !- Wind Exposure
  ,                                       !- View Factor to Ground
  ,                                       !- Number of Vertices
  7.53507039083872, 3.048, 2.4384,        !- X,Y,Z Vertex 1 {m}
  7.53507039083872, 3.048, 0,             !- X,Y,Z Vertex 2 {m}
  13.6310703908387, 3.048, 0,             !- X,Y,Z Vertex 3 {m}
  13.6310703908387, 3.048, 2.4384;        !- X,Y,Z Vertex 4 {m}

OS:Surface,
  {733396fd-0fb6-412c-a610-e86274ff6342}, !- Handle
  Surface 12,                             !- Name
  Wall,                                   !- Surface Type
  ,                                       !- Construction Name
  {f84ffe8f-3018-4e84-95ab-20b599ae1a5a}, !- Space Name
  Surface,                                !- Outside Boundary Condition
  {571124af-4b10-4a0c-854f-a9264a69f5fe}, !- Outside Boundary Condition Object
  NoSun,                                  !- Sun Exposure
  NoWind,                                 !- Wind Exposure
  ,                                       !- View Factor to Ground
  ,                                       !- Number of Vertices
  7.53507039083872, 0, 2.4384,            !- X,Y,Z Vertex 1 {m}
  7.53507039083872, 0, 0,                 !- X,Y,Z Vertex 2 {m}
  7.53507039083872, 3.048, 0,             !- X,Y,Z Vertex 3 {m}
  7.53507039083872, 3.048, 2.4384;        !- X,Y,Z Vertex 4 {m}

OS:Surface,
  {642d9adf-e9f5-404a-84d6-ce97f25016ed}, !- Handle
  Surface 13,                             !- Name
  Wall,                                   !- Surface Type
  ,                                       !- Construction Name
  {f84ffe8f-3018-4e84-95ab-20b599ae1a5a}, !- Space Name
  Outdoors,                               !- Outside Boundary Condition
  ,                                       !- Outside Boundary Condition Object
  SunExposed,                             !- Sun Exposure
  WindExposed,                            !- Wind Exposure
  ,                                       !- View Factor to Ground
  ,                                       !- Number of Vertices
  0, 0, 2.4384,                           !- X,Y,Z Vertex 1 {m}
  0, 0, 0,                                !- X,Y,Z Vertex 2 {m}
  7.53507039083872, 0, 0,                 !- X,Y,Z Vertex 3 {m}
  7.53507039083872, 0, 2.4384;            !- X,Y,Z Vertex 4 {m}

OS:Surface,
  {19df01f4-6e7a-48fb-9b9c-ad6b0ad292c2}, !- Handle
  Surface 14,                             !- Name
  RoofCeiling,                            !- Surface Type
  ,                                       !- Construction Name
  {f84ffe8f-3018-4e84-95ab-20b599ae1a5a}, !- Space Name
  Surface,                                !- Outside Boundary Condition
  {33cf315e-86e2-4e6d-82a3-06191ae04ca2}, !- Outside Boundary Condition Object
  NoSun,                                  !- Sun Exposure
  NoWind,                                 !- Wind Exposure
  ,                                       !- View Factor to Ground
  ,                                       !- Number of Vertices
  7.53507039083872, 0, 2.4384,            !- X,Y,Z Vertex 1 {m}
  7.53507039083872, 3.048, 2.4384,        !- X,Y,Z Vertex 2 {m}
  13.6310703908387, 3.048, 2.4384,        !- X,Y,Z Vertex 3 {m}
  13.6310703908387, 6.81553519541936, 2.4384, !- X,Y,Z Vertex 4 {m}
  0, 6.81553519541936, 2.4384,            !- X,Y,Z Vertex 5 {m}
  0, 0, 2.4384;                           !- X,Y,Z Vertex 6 {m}

OS:Space,
  {3e51a128-685b-453b-af2f-9ee99ce67e62}, !- Handle
  living space|story 2,                   !- Name
  ,                                       !- Space Type Name
  ,                                       !- Default Construction Set Name
  ,                                       !- Default Schedule Set Name
  -0,                                     !- Direction of Relative North {deg}
  0,                                      !- X Origin {m}
  0,                                      !- Y Origin {m}
  2.4384,                                 !- Z Origin {m}
  ,                                       !- Building Story Name