!- NOTE: Auto-generated from /test/osw_files/SFD_2000sqft_2story_SL_UA_AllLayersButWallInsulation_CeilingIns.osw

OS:Version,
  {d67cc5ec-20af-4ac9-bbec-24ff99c047e5}, !- Handle
  2.2.1;                                  !- Version Identifier

OS:Building,
  {bf305633-c5a1-4881-9edf-ca5e1a8e1274}, !- Handle
  Building,                               !- Name
  ,                                       !- Building Sector Type
  ,                                       !- North Axis {deg}
  ,                                       !- Nominal Floor to Floor Height {m}
  ,                                       !- Space Type Name
  ,                                       !- Default Construction Set Name
  ,                                       !- Default Schedule Set Name
  2,                                      !- Standards Number of Stories
  2,                                      !- Standards Number of Above Ground Stories
  singlefamilydetached,                   !- Standards Building Type
  1;                                      !- Standards Number of Living Units

OS:YearDescription,
  {513d8dda-86cb-442a-b01c-1f7f0e0ac70e}; !- Handle

OS:SimulationControl,
  {2c487a4c-bac9-4ac5-b669-1e49d9da7c2b}, !- Handle
  ,                                       !- Do Zone Sizing Calculation
  ,                                       !- Do System Sizing Calculation
  ,                                       !- Do Plant Sizing Calculation
  No,                                     !- Run Simulation for Sizing Periods
  ;                                       !- Run Simulation for Weather File Run Periods

OS:Timestep,
  {4ebc9f1e-4707-402e-9844-67eb1ffbd522}, !- Handle
  6;                                      !- Number of Timesteps per Hour

OS:RunPeriod,
  {28df894d-6af9-4fb8-8f56-df1753344aa3}, !- Handle
  Run Period,                             !- Name
  1,                                      !- Begin Month
  1,                                      !- Begin Day of Month
  12,                                     !- End Month
  31,                                     !- End Day of Month
  ,                                       !- Use Weather File Holidays and Special Days
  ,                                       !- Use Weather File Daylight Saving Period
  ,                                       !- Apply Weekend Holiday Rule
  ,                                       !- Use Weather File Rain Indicators
  ,                                       !- Use Weather File Snow Indicators
  ;                                       !- Number of Times Runperiod to be Repeated

OS:Sizing:Parameters,
  {dde5af6f-7923-4600-a28a-7556673a0266}, !- Handle
  1.0,                                    !- Heating Sizing Factor
  1.0;                                    !- Cooling Sizing Factor

OS:ShadowCalculation,
  {ca758bea-4416-4626-9bba-3d8795c79bd6}, !- Handle
  20,                                     !- Calculation Frequency
  200;                                    !- Maximum Figures in Shadow Overlap Calculations

OS:SurfaceConvectionAlgorithm:Inside,
  {aaabfc36-718a-4ab0-b622-f186ebb45230}, !- Handle
  TARP;                                   !- Algorithm

OS:SurfaceConvectionAlgorithm:Outside,
  {9a0a9f6f-4bbd-4b12-a121-9492a1fcd7d6}, !- Handle
  DOE-2;                                  !- Algorithm

OS:HeatBalanceAlgorithm,
  {9d93e563-e1e0-46d7-9e39-d1c8aceb7212}, !- Handle
  ConductionTransferFunction,             !- Algorithm
  200;                                    !- Surface Temperature Upper Limit {C}

OS:ZoneCapacitanceMultiplier:ResearchSpecial,
  {6bfced16-b16f-47f6-8223-f7e267d75d19}, !- Handle
  ,                                       !- Temperature Capacity Multiplier
  15,                                     !- Humidity Capacity Multiplier
  ;                                       !- Carbon Dioxide Capacity Multiplier

OS:ThermalZone,
  {24894fa6-01ab-40cd-991f-15d91a2904a6}, !- Handle
  living zone,                            !- Name
  ,                                       !- Multiplier
  ,                                       !- Ceiling Height {m}
  ,                                       !- Volume {m3}
  ,                                       !- Floor Area {m2}
  ,                                       !- Zone Inside Convection Algorithm
  ,                                       !- Zone Outside Convection Algorithm
  ,                                       !- Zone Conditioning Equipment List Name
  {0f813081-5e5f-4c09-b670-2233937f1a8c}, !- Zone Air Inlet Port List
  {391e5906-9beb-4560-b444-75928a72da70}, !- Zone Air Exhaust Port List
  {5d326db2-4de6-4295-a36f-03d387438ca6}, !- Zone Air Node Name
  ,                                       !- Zone Return Air Node Name
  ,                                       !- Primary Daylighting Control Name
  ,                                       !- Fraction of Zone Controlled by Primary Daylighting Control
  ,                                       !- Secondary Daylighting Control Name
  ,                                       !- Fraction of Zone Controlled by Secondary Daylighting Control
  ,                                       !- Illuminance Map Name
  ,                                       !- Group Rendering Name
  ,                                       !- Thermostat Name
  No;                                     !- Use Ideal Air Loads

OS:Node,
  {a7013245-eef2-4354-8481-22a3fa165a63}, !- Handle
  Node 1,                                 !- Name
  {5d326db2-4de6-4295-a36f-03d387438ca6}, !- Inlet Port
  ;                                       !- Outlet Port

OS:Connection,
  {5d326db2-4de6-4295-a36f-03d387438ca6}, !- Handle
  {3e05ee59-43f7-4590-87f0-1723d08e8eaa}, !- Name
  {24894fa6-01ab-40cd-991f-15d91a2904a6}, !- Source Object
  11,                                     !- Outlet Port
  {a7013245-eef2-4354-8481-22a3fa165a63}, !- Target Object
  2;                                      !- Inlet Port

OS:PortList,
  {0f813081-5e5f-4c09-b670-2233937f1a8c}, !- Handle
  {99a51e7f-e896-4f10-8a26-1d4d9ce0c73c}, !- Name
  {24894fa6-01ab-40cd-991f-15d91a2904a6}; !- HVAC Component

OS:PortList,
  {391e5906-9beb-4560-b444-75928a72da70}, !- Handle
  {c74d4d06-46b2-401d-b8f4-75b9a8f5cc87}, !- Name
  {24894fa6-01ab-40cd-991f-15d91a2904a6}; !- HVAC Component

OS:Sizing:Zone,
  {fedba2ef-2b1c-45ac-b94a-dccc6bb56608}, !- Handle
  {24894fa6-01ab-40cd-991f-15d91a2904a6}, !- Zone or ZoneList Name
  SupplyAirTemperature,                   !- Zone Cooling Design Supply Air Temperature Input Method
  14,                                     !- Zone Cooling Design Supply Air Temperature {C}
  11.11,                                  !- Zone Cooling Design Supply Air Temperature Difference {deltaC}
  SupplyAirTemperature,                   !- Zone Heating Design Supply Air Temperature Input Method
  40,                                     !- Zone Heating Design Supply Air Temperature {C}
  11.11,                                  !- Zone Heating Design Supply Air Temperature Difference {deltaC}
  0.0085,                                 !- Zone Cooling Design Supply Air Humidity Ratio {kg-H2O/kg-air}
  0.008,                                  !- Zone Heating Design Supply Air Humidity Ratio {kg-H2O/kg-air}
  ,                                       !- Zone Heating Sizing Factor
  ,                                       !- Zone Cooling Sizing Factor
  DesignDay,                              !- Cooling Design Air Flow Method
  ,                                       !- Cooling Design Air Flow Rate {m3/s}
  ,                                       !- Cooling Minimum Air Flow per Zone Floor Area {m3/s-m2}
  ,                                       !- Cooling Minimum Air Flow {m3/s}
  ,                                       !- Cooling Minimum Air Flow Fraction
  DesignDay,                              !- Heating Design Air Flow Method
  ,                                       !- Heating Design Air Flow Rate {m3/s}
  ,                                       !- Heating Maximum Air Flow per Zone Floor Area {m3/s-m2}
  ,                                       !- Heating Maximum Air Flow {m3/s}
  ,                                       !- Heating Maximum Air Flow Fraction
  ,                                       !- Design Zone Air Distribution Effectiveness in Cooling Mode
  ,                                       !- Design Zone Air Distribution Effectiveness in Heating Mode
  No,                                     !- Account for Dedicated Outdoor Air System
  NeutralSupplyAir,                       !- Dedicated Outdoor Air System Control Strategy
  autosize,                               !- Dedicated Outdoor Air Low Setpoint Temperature for Design {C}
  autosize;                               !- Dedicated Outdoor Air High Setpoint Temperature for Design {C}

OS:ZoneHVAC:EquipmentList,
  {df8b1f38-7ef2-4178-b71e-98ee3f83207f}, !- Handle
  Zone HVAC Equipment List 1,             !- Name
  {24894fa6-01ab-40cd-991f-15d91a2904a6}; !- Thermal Zone

OS:Space,
  {9b82d39b-c354-4510-9106-c9221fbd5e65}, !- Handle
  living space,                           !- Name
  ,                                       !- Space Type Name
  ,                                       !- Default Construction Set Name
  ,                                       !- Default Schedule Set Name
  -0,                                     !- Direction of Relative North {deg}
  0,                                      !- X Origin {m}
  0,                                      !- Y Origin {m}
  0,                                      !- Z Origin {m}
  ,                                       !- Building Story Name
  {24894fa6-01ab-40cd-991f-15d91a2904a6}, !- Thermal Zone Name
  ,                                       !- Part of Total Floor Area
  ,                                       !- Design Specification Outdoor Air Object Name
  {16ae86c8-6623-458a-9638-85e3177283e4}; !- Building Unit Name

OS:Surface,
  {3739ff70-92aa-489b-bd7a-a2e3038076b9}, !- Handle
  Surface 1,                              !- Name
  Floor,                                  !- Surface Type
  ,                                       !- Construction Name
  {9b82d39b-c354-4510-9106-c9221fbd5e65}, !- Space Name
  Ground,                                 !- Outside Boundary Condition
  ,                                       !- Outside Boundary Condition Object
  NoSun,                                  !- Sun Exposure
  NoWind,                                 !- Wind Exposure
  ,                                       !- View Factor to Ground
  ,                                       !- Number of Vertices
  0, 0, 0,                                !- X,Y,Z Vertex 1 {m}
  0, 6.81553519541936, 0,                 !- X,Y,Z Vertex 2 {m}
  13.6310703908387, 6.81553519541936, 0,  !- X,Y,Z Vertex 3 {m}
  13.6310703908387, 0, 0;                 !- X,Y,Z Vertex 4 {m}

OS:Surface,
  {812b3ab8-135b-4c1e-bebf-73e9761c588a}, !- Handle
  Surface 2,                              !- Name
  Wall,                                   !- Surface Type
  {3c18eccf-508a-45ca-8940-bbee787ee4e1}, !- Construction Name
  {9b82d39b-c354-4510-9106-c9221fbd5e65}, !- Space Name
  Outdoors,                               !- Outside Boundary Condition
  ,                                       !- Outside Boundary Condition Object
  SunExposed,                             !- Sun Exposure
  WindExposed,                            !- Wind Exposure
  ,                                       !- View Factor to Ground
  ,                                       !- Number of Vertices
  0, 6.81553519541936, 2.4384,            !- X,Y,Z Vertex 1 {m}
  0, 6.81553519541936, 0,                 !- X,Y,Z Vertex 2 {m}
  0, 0, 0,                                !- X,Y,Z Vertex 3 {m}
  0, 0, 2.4384;                           !- X,Y,Z Vertex 4 {m}

OS:Surface,
  {eeb32aa2-7e3c-4e06-95d9-f117a8b67279}, !- Handle
  Surface 3,                              !- Name
  Wall,                                   !- Surface Type
  {3c18eccf-508a-45ca-8940-bbee787ee4e1}, !- Construction Name
  {9b82d39b-c354-4510-9106-c9221fbd5e65}, !- Space Name
  Outdoors,                               !- Outside Boundary Condition
  ,                                       !- Outside Boundary Condition Object
  SunExposed,                             !- Sun Exposure
  WindExposed,                            !- Wind Exposure
  ,                                       !- View Factor to Ground
  ,                                       !- Number of Vertices
  13.6310703908387, 6.81553519541936, 2.4384, !- X,Y,Z Vertex 1 {m}
  13.6310703908387, 6.81553519541936, 0,  !- X,Y,Z Vertex 2 {m}
  0, 6.81553519541936, 0,                 !- X,Y,Z Vertex 3 {m}
  0, 6.81553519541936, 2.4384;            !- X,Y,Z Vertex 4 {m}

OS:Surface,
  {be70cce5-0bba-4cce-9583-7dc0d27425f2}, !- Handle
  Surface 4,                              !- Name
  Wall,                                   !- Surface Type
  {3c18eccf-508a-45ca-8940-bbee787ee4e1}, !- Construction Name
  {9b82d39b-c354-4510-9106-c9221fbd5e65}, !- Space Name
  Outdoors,                               !- Outside Boundary Condition
  ,                                       !- Outside Boundary Condition Object
  SunExposed,                             !- Sun Exposure
  WindExposed,                            !- Wind Exposure
  ,                                       !- View Factor to Ground
  ,                                       !- Number of Vertices
  13.6310703908387, 0, 2.4384,            !- X,Y,Z Vertex 1 {m}
  13.6310703908387, 0, 0,                 !- X,Y,Z Vertex 2 {m}
  13.6310703908387, 6.81553519541936, 0,  !- X,Y,Z Vertex 3 {m}
  13.6310703908387, 6.81553519541936, 2.4384; !- X,Y,Z Vertex 4 {m}

OS:Surface,
  {13454865-fa1a-4407-9550-c30125c86cb3}, !- Handle
  Surface 5,                              !- Name
  Wall,                                   !- Surface Type
  {3c18eccf-508a-45ca-8940-bbee787ee4e1}, !- Construction Name
  {9b82d39b-c354-4510-9106-c9221fbd5e65}, !- Space Name
  Outdoors,                               !- Outside Boundary Condition
  ,                                       !- Outside Boundary Condition Object
  SunExposed,                             !- Sun Exposure
  WindExposed,                            !- Wind Exposure
  ,                                       !- View Factor to Ground
  ,                                       !- Number of Vertices
  0, 0, 2.4384,                           !- X,Y,Z Vertex 1 {m}
  0, 0, 0,                                !- X,Y,Z Vertex 2 {m}
  13.6310703908387, 0, 0,                 !- X,Y,Z Vertex 3 {m}
  13.6310703908387, 0, 2.4384;            !- X,Y,Z Vertex 4 {m}

OS:Surface,
  {10fd6ec4-616c-4b37-a0ff-8658994caab2}, !- Handle
  Surface 6,                              !- Name
  RoofCeiling,                            !- Surface Type
  ,                                       !- Construction Name
  {9b82d39b-c354-4510-9106-c9221fbd5e65}, !- Space Name
  Surface,                                !- Outside Boundary Condition
  {90a4f2e9-fe2e-4b21-886f-81abe2d90a86}, !- Outside Boundary Condition Object
  NoSun,                                  !- Sun Exposure
  NoWind,                                 !- Wind Exposure
  ,                                       !- View Factor to Ground
  ,                                       !- Number of Vertices
  13.6310703908387, 0, 2.4384,            !- X,Y,Z Vertex 1 {m}
  13.6310703908387, 6.81553519541936, 2.4384, !- X,Y,Z Vertex 2 {m}
  0, 6.81553519541936, 2.4384,            !- X,Y,Z Vertex 3 {m}
  0, 0, 2.4384;                           !- X,Y,Z Vertex 4 {m}

OS:Space,
  {83797b55-746b-450d-a34a-bcc945cd5144}, !- Handle
  living space|story 2,                   !- Name
  ,                                       !- Space Type Name
  ,                                       !- Default Construction Set Name
  ,                                       !- Default Schedule Set Name
  -0,                                     !- Direction of Relative North {deg}
  0,                                      !- X Origin {m}
  0,                                      !- Y Origin {m}
  2.4384,                                 !- Z Origin {m}
  ,                                       !- Building Story Name
  {24894fa6-01ab-40cd-991f-15d91a2904a6}, !- Thermal Zone Name
  ,                                       !- Part of Total Floor Area
  ,                                       !- Design Specification Outdoor Air Object Name
  {16ae86c8-6623-458a-9638-85e3177283e4}; !- Building Unit Name

OS:Surface,
  {90a4f2e9-fe2e-4b21-886f-81abe2d90a86}, !- Handle
  Surface 7,                              !- Name
  Floor,                                  !- Surface Type
  ,                                       !- Construction Name
  {83797b55-746b-450d-a34a-bcc945cd5144}, !- Space Name
  Surface,                                !- Outside Boundary Condition
  {10fd6ec4-616c-4b37-a0ff-8658994caab2}, !- Outside Boundary Condition Object
  NoSun,                                  !- Sun Exposure
  NoWind,                                 !- Wind Exposure
  ,                                       !- View Factor to Ground
  ,                                       !- Number of Vertices
  0, 0, 0,                                !- X,Y,Z Vertex 1 {m}
  0, 6.81553519541936, 0,                 !- X,Y,Z Vertex 2 {m}
  13.6310703908387, 6.81553519541936, 0,  !- X,Y,Z Vertex 3 {m}
  13.6310703908387, 0, 0;                 !- X,Y,Z Vertex 4 {m}

OS:Surface,
  {d5c1623b-72b0-4511-8972-ef8364915a55}, !- Handle
  Surface 8,                              !- Name
  Wall,                                   !- Surface Type
  {3c18eccf-508a-45ca-8940-bbee787ee4e1}, !- Construction Name
  {83797b55-746b-450d-a34a-bcc945cd5144}, !- Space Name
  Outdoors,                               !- Outside Boundary Condition
  ,                                       !- Outside Boundary Condition Object
  SunExposed,                             !- Sun Exposure
  WindExposed,                            !- Wind Exposure
  ,                                       !- View Factor to Ground
  ,                                       !- Number of Vertices
  0, 6.81553519541936, 2.4384,            !- X,Y,Z Vertex 1 {m}
  0, 6.81553519541936, 0,                 !- X,Y,Z Vertex 2 {m}
  0, 0, 0,                                !- X,Y,Z Vertex 3 {m}
  0, 0, 2.4384;                           !- X,Y,Z Vertex 4 {m}

OS:Surface,
  {0a2c2a4c-7303-4022-a40d-79f766e169ac}, !- Handle
  Surface 9,                              !- Name
  Wall,                                   !- Surface Type
  {3c18eccf-508a-45ca-8940-bbee787ee4e1}, !- Construction Name
  {83797b55-746b-450d-a34a-bcc945cd5144}, !- Space Name
  Outdoors,                               !- Outside Boundary Condition
  ,                                       !- Outside Boundary Condition Object
  SunExposed,                             !- Sun Exposure
  WindExposed,                            !- Wind Exposure
  ,                                       !- View Factor to Ground
  ,                                       !- Number of Vertices
  13.6310703908387, 6.81553519541936, 2.4384, !- X,Y,Z Vertex 1 {m}
  13.6310703908387, 6.81553519541936, 0,  !- X,Y,Z Vertex 2 {m}
  0, 6.81553519541936, 0,                 !- X,Y,Z Vertex 3 {m}
  0, 6.81553519541936, 2.4384;            !- X,Y,Z Vertex 4 {m}

OS:Surface,
  {0d80f0af-1aeb-4064-9c9b-7469e187544f}, !- Handle
  Surface 10,                             !- Name
  Wall,                                   !- Surface Type
  {3c18eccf-508a-45ca-8940-bbee787ee4e1}, !- Construction Name
  {83797b55-746b-450d-a34a-bcc945cd5144}, !- Space Name
  Outdoors,                               !- Outside Boundary Condition
  ,                                       !- Outside Boundary Condition Object
  SunExposed,                             !- Sun Exposure
  WindExposed,                            !- Wind Exposure
  ,                                       !- View Factor to Ground
  ,                                       !- Number of Vertices
  13.6310703908387, 0, 2.4384,            !- X,Y,Z Vertex 1 {m}
  13.6310703908387, 0, 0,                 !- X,Y,Z Vertex 2 {m}
  13.6310703908387, 6.81553519541936, 0,  !- X,Y,Z Vertex 3 {m}
  13.6310703908387, 6.81553519541936, 2.4384; !- X,Y,Z Vertex 4 {m}

OS:Surface,
  {d4073d3b-38f3-47df-9306-168f1910ffec}, !- Handle
  Surface 11,                             !- Name
  Wall,                                   !- Surface Type
  {3c18eccf-508a-45ca-8940-bbee787ee4e1}, !- Construction Name
  {83797b55-746b-450d-a34a-bcc945cd5144}, !- Space Name
  Outdoors,                               !- Outside Boundary Condition
  ,                                       !- Outside Boundary Condition Object
  SunExposed,                             !- Sun Exposure
  WindExposed,                            !- Wind Exposure
  ,                                       !- View Factor to Ground
  ,                                       !- Number of Vertices
  0, 0, 2.4384,                           !- X,Y,Z Vertex 1 {m}
  0, 0, 0,                                !- X,Y,Z Vertex 2 {m}
  13.6310703908387, 0, 0,                 !- X,Y,Z Vertex 3 {m}
  13.6310703908387, 0, 2.4384;            !- X,Y,Z Vertex 4 {m}

OS:Surface,
  {6160d66d-74ed-4bd7-99bb-cf91c9b44105}, !- Handle
  Surface 12,                             !- Name
  RoofCeiling,                            !- Surface Type
  {29b93230-6cce-40b3-b93d-d7c46f25d1e8}, !- Construction Name
  {83797b55-746b-450d-a34a-bcc945cd5144}, !- Space Name
  Surface,                                !- Outside Boundary Condition
  {9a88c1bf-3114-431b-940d-c8ab7a0355eb}, !- Outside Boundary Condition Object
  NoSun,                                  !- Sun Exposure
  NoWind,                                 !- Wind Exposure
  ,                                       !- View Factor to Ground
  ,                                       !- Number of Vertices
  13.6310703908387, 0, 2.4384,            !- X,Y,Z Vertex 1 {m}
  13.6310703908387, 6.81553519541936, 2.4384, !- X,Y,Z Vertex 2 {m}
  0, 6.81553519541936, 2.4384,            !- X,Y,Z Vertex 3 {m}
  0, 0, 2.4384;                           !- X,Y,Z Vertex 4 {m}

OS:Surface,
  {9a88c1bf-3114-431b-940d-c8ab7a0355eb}, !- Handle
  Surface 13,                             !- Name
  Floor,                                  !- Surface Type
  {6935cb4e-92c8-4be9-b553-42fed6e12799}, !- Construction Name
  {60ed865e-9bfe-4767-bc1b-9127652249f8}, !- Space Name
  Surface,                                !- Outside Boundary Condition
  {6160d66d-74ed-4bd7-99bb-cf91c9b44105}, !- Outside Boundary Condition Object
  NoSun,                                  !- Sun Exposure
  NoWind,                                 !- Wind Exposure
  ,                                       !- View Factor to Ground
  ,                                       !- Number of Vertices
  0, 6.81553519541936, 0,                 !- X,Y,Z Vertex 1 {m}
  13.6310703908387, 6.81553519541936, 0,  !- X,Y,Z Vertex 2 {m}
  13.6310703908387, 0, 0,                 !- X,Y,Z Vertex 3 {m}
  0, 0, 0;                                !- X,Y,Z Vertex 4 {m}

OS:Surface,
  {deee85fb-29be-407d-a75d-ddc8d4208741}, !- Handle
  Surface 14,                             !- Name
  RoofCeiling,                            !- Surface Type
  {e3c5f665-9094-4bd2-8ad2-7b53e5a6d66e}, !- Construction Name
  {60ed865e-9bfe-4767-bc1b-9127652249f8}, !- Space Name
  Outdoors,                               !- Outside Boundary Condition
  ,                                       !- Outside Boundary Condition Object
  SunExposed,                             !- Sun Exposure
  WindExposed,                            !- Wind Exposure
  ,                                       !- View Factor to Ground
  ,                                       !- Number of Vertices
  13.6310703908387, 3.40776759770968, 1.70388379885484, !- X,Y,Z Vertex 1 {m}
  0, 3.40776759770968, 1.70388379885484,  !- X,Y,Z Vertex 2 {m}
  0, 0, 0,                                !- X,Y,Z Vertex 3 {m}
  13.6310703908387, 0, 0;                 !- X,Y,Z Vertex 4 {m}

OS:Surface,
  {90188b1d-e936-4b88-8800-45316c220539}, !- Handle
  Surface 15,                             !- Name
  RoofCeiling,                            !- Surface Type
  {e3c5f665-9094-4bd2-8ad2-7b53e5a6d66e}, !- Construction Name
  {60ed865e-9bfe-4767-bc1b-9127652249f8}, !- Space Name
  Outdoors,                               !- Outside Boundary Condition
  ,                                       !- Outside Boundary Condition Object
  SunExposed,                             !- Sun Exposure
  WindExposed,                            !- Wind Exposure
  ,                                       !- View Factor to Ground
  ,                                       !- Number of Vertices
  0, 3.40776759770968, 1.70388379885484,  !- X,Y,Z Vertex 1 {m}
  13.6310703908387, 3.40776759770968, 1.70388379885484, !- X,Y,Z Vertex 2 {m}
  13.6310703908387, 6.81553519541936, 0,  !- X,Y,Z Vertex 3 {m}
  0, 6.81553519541936, 0;                 !- X,Y,Z Vertex 4 {m}

OS:Surface,
  {d6a3ffc1-bb44-434f-801b-4e41805ead84}, !- Handle
  Surface 16,                             !- Name
  Wall,                                   !- Surface Type
  {435d5d8c-33af-4139-a24c-f2da6cbe8e81}, !- Construction Name
  {60ed865e-9bfe-4767-bc1b-9127652249f8}, !- Space Name
  Outdoors,                               !- Outside Boundary Condition
  ,                                       !- Outside Boundary Condition Object
  SunExposed,                             !- Sun Exposure
  WindExposed,                            !- Wind Exposure
  ,                                       !- View Factor to Ground
  ,                                       !- Number of Vertices
  0, 3.40776759770968, 1.70388379885484,  !- X,Y,Z Vertex 1 {m}
  0, 6.81553519541936, 0,                 !- X,Y,Z Vertex 2 {m}
  0, 0, 0;                                !- X,Y,Z Vertex 3 {m}

OS:Surface,
  {6387c1ec-a827-45e3-becc-68e356d1a174}, !- Handle
  Surface 17,                             !- Name
  Wall,                                   !- Surface Type
  {435d5d8c-33af-4139-a24c-f2da6cbe8e81}, !- Construction Name
  {60ed865e-9bfe-4767-bc1b-9127652249f8}, !- Space Name
  Outdoors,                               !- Outside Boundary Condition
  ,                                       !- Outside Boundary Condition Object
  SunExposed,                             !- Sun Exposure
  WindExposed,                            !- Wind Exposure
  ,                                       !- View Factor to Ground
  ,                                       !- Number of Vertices
  13.6310703908387, 3.40776759770968, 1.70388379885484, !- X,Y,Z Vertex 1 {m}
  13.6310703908387, 0, 0,                 !- X,Y,Z Vertex 2 {m}
  13.6310703908387, 6.81553519541936, 0;  !- X,Y,Z Vertex 3 {m}

OS:Space,
  {60ed865e-9bfe-4767-bc1b-9127652249f8}, !- Handle
  unfinished attic space,                 !- Name
  ,                                       !- Space Type Name
  ,                                       !- Default Construction Set Name
  ,                                       !- Default Schedule Set Name
  -0,                                     !- Direction of Relative North {deg}
  0,                                      !- X Origin {m}
  0,                                      !- Y Origin {m}
  4.8768,                                 !- Z Origin {m}
  ,                                       !- Building Story Name
  {e1740f50-ad12-4cd1-a4cd-1af1ec232fb5}, !- Thermal Zone Name
  ,                                       !- Part of Total Floor Area
  ,                                       !- Design Specification Outdoor Air Object Name
  {16ae86c8-6623-458a-9638-85e3177283e4}; !- Building Unit Name

OS:ThermalZone,
  {e1740f50-ad12-4cd1-a4cd-1af1ec232fb5}, !- Handle
  unfinished attic zone,                  !- Name
  ,                                       !- Multiplier
  ,                                       !- Ceiling Height {m}
  ,                                       !- Volume {m3}
  ,                                       !- Floor Area {m2}
  ,                                       !- Zone Inside Convection Algorithm
  ,                                       !- Zone Outside Convection Algorithm
  ,                                       !- Zone Conditioning Equipment List Name
  {9acc8153-2038-488e-9084-58842fcfd710}, !- Zone Air Inlet Port List
  {d9ca4c68-217e-43f7-90d0-89b83c84bdb0}, !- Zone Air Exhaust Port List
  {06b8e246-53e1-41f4-9c58-bfcebe7b9273}, !- Zone Air Node Name
  ,                                       !- Zone Return Air Node Name
  ,                                       !- Primary Daylighting Control Name
  ,                                       !- Fraction of Zone Controlled by Primary Daylighting Control
  ,                                       !- Secondary Daylighting Control Name
  ,                                       !- Fraction of Zone Controlled by Secondary Daylighting Control
  ,                                       !- Illuminance Map Name
  ,                                       !- Group Rendering Name
  ,                                       !- Thermostat Name
  No;                                     !- Use Ideal Air Loads

OS:Node,
  {82f73847-b01f-4504-a34c-6f57aa979877}, !- Handle
  Node 2,                                 !- Name
  {06b8e246-53e1-41f4-9c58-bfcebe7b9273}, !- Inlet Port
  ;                                       !- Outlet Port

OS:Connection,
  {06b8e246-53e1-41f4-9c58-bfcebe7b9273}, !- Handle
  {9d21cf00-78bf-4b36-accd-9949a8bb450c}, !- Name
  {e1740f50-ad12-4cd1-a4cd-1af1ec232fb5}, !- Source Object
  11,                                     !- Outlet Port
  {82f73847-b01f-4504-a34c-6f57aa979877}, !- Target Object
  2;                                      !- Inlet Port

OS:PortList,
  {9acc8153-2038-488e-9084-58842fcfd710}, !- Handle