!- NOTE: Auto-generated from /test/osw_files/MF_2units_Multizone_2story_SL_UA_GRG_2Bed_2Bath_Denver.osw

OS:Version,
  {8cf84cf0-45fd-4e34-b508-631ce662e26c}, !- Handle
  2.2.1;                                  !- Version Identifier

OS:Building,
  {bf305633-c5a1-4881-9edf-ca5e1a8e1274}, !- Handle
  Building,                               !- Name
  ,                                       !- Building Sector Type
  ,                                       !- North Axis {deg}
  ,                                       !- Nominal Floor to Floor Height {m}
  ,                                       !- Space Type Name
  ,                                       !- Default Construction Set Name
  ,                                       !- Default Schedule Set Name
  ,                                       !- Standards Number of Stories
  2,                                      !- Standards Number of Above Ground Stories
  singlefamilyttached;                    !- Standards Building Type

OS:YearDescription,
  {513d8dda-86cb-442a-b01c-1f7f0e0ac70e}; !- Handle

OS:SimulationControl,
  {2c487a4c-bac9-4ac5-b669-1e49d9da7c2b}, !- Handle
  ,                                       !- Do Zone Sizing Calculation
  ,                                       !- Do System Sizing Calculation
  ,                                       !- Do Plant Sizing Calculation
  No,                                     !- Run Simulation for Sizing Periods
  ;                                       !- Run Simulation for Weather File Run Periods

OS:Timestep,
  {4ebc9f1e-4707-402e-9844-67eb1ffbd522}, !- Handle
  6;                                      !- Number of Timesteps per Hour

OS:RunPeriod,
  {28df894d-6af9-4fb8-8f56-df1753344aa3}, !- Handle
  Run Period,                             !- Name
  1,                                      !- Begin Month
  1,                                      !- Begin Day of Month
  12,                                     !- End Month
  31,                                     !- End Day of Month
  ,                                       !- Use Weather File Holidays and Special Days
  ,                                       !- Use Weather File Daylight Saving Period
  ,                                       !- Apply Weekend Holiday Rule
  ,                                       !- Use Weather File Rain Indicators
  ,                                       !- Use Weather File Snow Indicators
  ;                                       !- Number of Times Runperiod to be Repeated

OS:Sizing:Parameters,
  {dde5af6f-7923-4600-a28a-7556673a0266}, !- Handle
  1.0,                                    !- Heating Sizing Factor
  1.0;                                    !- Cooling Sizing Factor

OS:ShadowCalculation,
  {ca758bea-4416-4626-9bba-3d8795c79bd6}, !- Handle
  20,                                     !- Calculation Frequency
  200;                                    !- Maximum Figures in Shadow Overlap Calculations

OS:SurfaceConvectionAlgorithm:Inside,
  {aaabfc36-718a-4ab0-b622-f186ebb45230}, !- Handle
  TARP;                                   !- Algorithm

OS:SurfaceConvectionAlgorithm:Outside,
  {9a0a9f6f-4bbd-4b12-a121-9492a1fcd7d6}, !- Handle
  DOE-2;                                  !- Algorithm

OS:HeatBalanceAlgorithm,
  {9d93e563-e1e0-46d7-9e39-d1c8aceb7212}, !- Handle
  ConductionTransferFunction,             !- Algorithm
  200;                                    !- Surface Temperature Upper Limit {C}

OS:ZoneCapacitanceMultiplier:ResearchSpecial,
  {6bfced16-b16f-47f6-8223-f7e267d75d19}, !- Handle
  ,                                       !- Temperature Capacity Multiplier
  15,                                     !- Humidity Capacity Multiplier
  ;                                       !- Carbon Dioxide Capacity Multiplier

OS:Space,
  {d6f16bf8-84e7-474f-9a52-d26a08791ea5}, !- Handle
  Space 1 - 14,                           !- Name
  {9af426c8-56c7-4043-a2d6-cf65d7caa080}, !- Space Type Name
  ,                                       !- Default Construction Set Name
  ,                                       !- Default Schedule Set Name
  ,                                       !- Direction of Relative North {deg}
  ,                                       !- X Origin {m}
  ,                                       !- Y Origin {m}
  ,                                       !- Z Origin {m}
  ,                                       !- Building Story Name
  {9ea7ca9a-d5e4-4d48-a9e7-d068fa3d1ed1}, !- Thermal Zone Name
  ,                                       !- Part of Total Floor Area
  ,                                       !- Design Specification Outdoor Air Object Name
  {776291e4-0b9b-46f4-8ff0-5be8ec6a14e2}; !- Building Unit Name

OS:SpaceType,
  {9af426c8-56c7-4043-a2d6-cf65d7caa080}, !- Handle
  laundry room,                           !- Name
  ,                                       !- Default Construction Set Name
  ,                                       !- Default Schedule Set Name
  ,                                       !- Group Rendering Name
  ,                                       !- Design Specification Outdoor Air Object Name
  ,                                       !- Standards Building Type
  laundry room;                           !- Standards Space Type

OS:Surface,
  {945959ae-2486-450d-a9d8-116377716ec7}, !- Handle
   83,                                    !- Name
  Floor,                                  !- Surface Type
  ,                                       !- Construction Name
  {d6f16bf8-84e7-474f-9a52-d26a08791ea5}, !- Space Name
  Ground,                                 !- Outside Boundary Condition
  ,                                       !- Outside Boundary Condition Object
  NoSun,                                  !- Sun Exposure
  NoWind,                                 !- Wind Exposure
  ,                                       !- View Factor to Ground
  ,                                       !- Number of Vertices
  34.1376, 10.9728, 0,                    !- X,Y,Z Vertex 1 {m}
  32.9184, 10.9728, 0,                    !- X,Y,Z Vertex 2 {m}
  32.9184, 17.6784, 0,                    !- X,Y,Z Vertex 3 {m}
  34.1376, 17.6784, 0;                    !- X,Y,Z Vertex 4 {m}

OS:Surface,
  {e69b3ec9-b8ee-4f6c-8b21-6ac941ad94a9}, !- Handle
   84,                                    !- Name
  RoofCeiling,                            !- Surface Type
  ,                                       !- Construction Name
  {d6f16bf8-84e7-474f-9a52-d26a08791ea5}, !- Space Name
  Surface,                                !- Outside Boundary Condition
  {6fa37abe-5592-458d-a7e7-12516fbf24b2}, !- Outside Boundary Condition Object
  NoSun,                                  !- Sun Exposure
  NoWind,                                 !- Wind Exposure
  ,                                       !- View Factor to Ground
  ,                                       !- Number of Vertices
  34.1376, 17.6784, 3,                    !- X,Y,Z Vertex 1 {m}
  32.9184, 17.6784, 3,                    !- X,Y,Z Vertex 2 {m}
  32.9184, 10.9728, 3,                    !- X,Y,Z Vertex 3 {m}
  34.1376, 10.9728, 3;                    !- X,Y,Z Vertex 4 {m}

OS:Surface,
  {c159c760-042f-4e07-b448-42f92a46cf75}, !- Handle
   85,                                    !- Name
  Wall,                                   !- Surface Type
  ,                                       !- Construction Name
  {d6f16bf8-84e7-474f-9a52-d26a08791ea5}, !- Space Name
  Outdoors,                               !- Outside Boundary Condition
  ,                                       !- Outside Boundary Condition Object
  SunExposed,                             !- Sun Exposure
  WindExposed,                            !- Wind Exposure
  ,                                       !- View Factor to Ground
  ,                                       !- Number of Vertices
  32.9184, 10.9728, 3,                    !- X,Y,Z Vertex 1 {m}
  32.9184, 10.9728, 0,                    !- X,Y,Z Vertex 2 {m}
  34.1376, 10.9728, 0,                    !- X,Y,Z Vertex 3 {m}
  34.1376, 10.9728, 3;                    !- X,Y,Z Vertex 4 {m}

OS:Surface,
  {b1668abd-b639-4f4b-8686-bfb8cda3eba2}, !- Handle
   86,                                    !- Name
  Wall,                                   !- Surface Type
  ,                                       !- Construction Name
  {d6f16bf8-84e7-474f-9a52-d26a08791ea5}, !- Space Name
  Surface,                                !- Outside Boundary Condition
  {b04439f3-2a8e-405c-b169-89ce74462a8b}, !- Outside Boundary Condition Object
  NoSun,                                  !- Sun Exposure
  NoWind,                                 !- Wind Exposure
  ,                                       !- View Factor to Ground
  ,                                       !- Number of Vertices
  32.9184, 17.6784, 3,                    !- X,Y,Z Vertex 1 {m}
  32.9184, 17.6784, 0,                    !- X,Y,Z Vertex 2 {m}
  32.9184, 10.9728, 0,                    !- X,Y,Z Vertex 3 {m}
  32.9184, 10.9728, 3;                    !- X,Y,Z Vertex 4 {m}

OS:Surface,
  {a5167f9c-ef9e-46ec-ae34-c78f57505988}, !- Handle
   87,                                    !- Name
  Wall,                                   !- Surface Type
  ,                                       !- Construction Name
  {d6f16bf8-84e7-474f-9a52-d26a08791ea5}, !- Space Name
  Outdoors,                               !- Outside Boundary Condition
  ,                                       !- Outside Boundary Condition Object
  SunExposed,                             !- Sun Exposure
  WindExposed,                            !- Wind Exposure
  ,                                       !- View Factor to Ground
  ,                                       !- Number of Vertices
  34.1376, 17.6784, 3,                    !- X,Y,Z Vertex 1 {m}
  34.1376, 17.6784, 0,                    !- X,Y,Z Vertex 2 {m}
  32.9184, 17.6784, 0,                    !- X,Y,Z Vertex 3 {m}
  32.9184, 17.6784, 3;                    !- X,Y,Z Vertex 4 {m}

OS:Surface,
  {d0710f74-b88e-42a4-b7a9-0403eba9b646}, !- Handle
   88,                                    !- Name
  Wall,                                   !- Surface Type
  ,                                       !- Construction Name
  {d6f16bf8-84e7-474f-9a52-d26a08791ea5}, !- Space Name
  Outdoors,                               !- Outside Boundary Condition
  ,                                       !- Outside Boundary Condition Object
  SunExposed,                             !- Sun Exposure
  WindExposed,                            !- Wind Exposure
  ,                                       !- View Factor to Ground
  ,                                       !- Number of Vertices
  34.1376, 10.9728, 3,                    !- X,Y,Z Vertex 1 {m}
  34.1376, 10.9728, 0,                    !- X,Y,Z Vertex 2 {m}
  34.1376, 17.6784, 0,                    !- X,Y,Z Vertex 3 {m}
  34.1376, 17.6784, 3;                    !- X,Y,Z Vertex 4 {m}

OS:Space,
  {7090b3d0-964e-4a0a-8309-3d4ba4730370}, !- Handle
  Space 1 - 12,                           !- Name
  {3f40da90-4787-4b84-bbee-cf6ae5a6bcc8}, !- Space Type Name
  ,                                       !- Default Construction Set Name
  ,                                       !- Default Schedule Set Name
  ,                                       !- Direction of Relative North {deg}
  ,                                       !- X Origin {m}
  ,                                       !- Y Origin {m}
  ,                                       !- Z Origin {m}
  ,                                       !- Building Story Name
  {58f49b0f-32ef-419d-9b78-8f673e1af4b0}, !- Thermal Zone Name
  ,                                       !- Part of Total Floor Area
  ,                                       !- Design Specification Outdoor Air Object Name
  {776291e4-0b9b-46f4-8ff0-5be8ec6a14e2}; !- Building Unit Name

OS:SpaceType,
  {3f40da90-4787-4b84-bbee-cf6ae5a6bcc8}, !- Handle
  garage,                                 !- Name
  ,                                       !- Default Construction Set Name
  ,                                       !- Default Schedule Set Name
  ,                                       !- Group Rendering Name
  ,                                       !- Design Specification Outdoor Air Object Name
  ,                                       !- Standards Building Type
  garage;                                 !- Standards Space Type

OS:Surface,
  {682c0fc1-bafb-4efc-8445-84298c3fa4c0}, !- Handle
   70,                                    !- Name
  Floor,                                  !- Surface Type
  ,                                       !- Construction Name
  {7090b3d0-964e-4a0a-8309-3d4ba4730370}, !- Space Name
  Ground,                                 !- Outside Boundary Condition
  ,                                       !- Outside Boundary Condition Object
  NoSun,                                  !- Sun Exposure
  NoWind,                                 !- Wind Exposure
  ,                                       !- View Factor to Ground
  ,                                       !- Number of Vertices
  32.9184, 10.9728, 0,                    !- X,Y,Z Vertex 1 {m}
  29.8704, 10.9728, 0,                    !- X,Y,Z Vertex 2 {m}
  29.8704, 17.6784, 0,                    !- X,Y,Z Vertex 3 {m}
  32.9184, 17.6784, 0;                    !- X,Y,Z Vertex 4 {m}

OS:Surface,
  {5789f3e7-4cf4-4d59-852d-46e82e743a2b}, !- Handle
   71,                                    !- Name
  RoofCeiling,                            !- Surface Type
  ,                                       !- Construction Name
  {7090b3d0-964e-4a0a-8309-3d4ba4730370}, !- Space Name
  Surface,                                !- Outside Boundary Condition
  {188c7c08-fc53-415b-8633-f8ef7831a99b}, !- Outside Boundary Condition Object
  NoSun,                                  !- Sun Exposure
  NoWind,                                 !- Wind Exposure
  ,                                       !- View Factor to Ground
  ,                                       !- Number of Vertices
  32.9184, 10.9728, 3,                    !- X,Y,Z Vertex 1 {m}
  32.9184, 17.6784, 3,                    !- X,Y,Z Vertex 2 {m}
  29.8704, 17.6784, 3,                    !- X,Y,Z Vertex 3 {m}
  29.8704, 10.9728, 3;                    !- X,Y,Z Vertex 4 {m}

OS:Surface,
  {7d7ee111-8f0c-448f-b692-23bd2d0333e6}, !- Handle
   72,                                    !- Name
  Wall,                                   !- Surface Type
  ,                                       !- Construction Name
  {7090b3d0-964e-4a0a-8309-3d4ba4730370}, !- Space Name
  Outdoors,                               !- Outside Boundary Condition
  ,                                       !- Outside Boundary Condition Object
  SunExposed,                             !- Sun Exposure
  WindExposed,                            !- Wind Exposure
  ,                                       !- View Factor to Ground
  ,                                       !- Number of Vertices
  29.8704, 10.9728, 3,                    !- X,Y,Z Vertex 1 {m}
  29.8704, 10.9728, 0,                    !- X,Y,Z Vertex 2 {m}
  32.9184, 10.9728, 0,                    !- X,Y,Z Vertex 3 {m}
  32.9184, 10.9728, 3;                    !- X,Y,Z Vertex 4 {m}

OS:Surface,
  {91740573-18c4-44d7-8199-86e60aaac366}, !- Handle
   73,                                    !- Name
  Wall,                                   !- Surface Type
  ,                                       !- Construction Name
  {7090b3d0-964e-4a0a-8309-3d4ba4730370}, !- Space Name
  Surface,                                !- Outside Boundary Condition
  {46a71c0e-843e-4820-8f98-36488d1ff91d}, !- Outside Boundary Condition Object
  NoSun,                                  !- Sun Exposure
  NoWind,                                 !- Wind Exposure
  ,                                       !- View Factor to Ground
  ,                                       !- Number of Vertices
  29.8704, 17.6784, 3,                    !- X,Y,Z Vertex 1 {m}
  29.8704, 17.6784, 0,                    !- X,Y,Z Vertex 2 {m}
  29.8704, 10.9728, 0,                    !- X,Y,Z Vertex 3 {m}
  29.8704, 10.9728, 3;                    !- X,Y,Z Vertex 4 {m}

OS:Surface,
  {7c24bab9-e778-40ff-b687-b1117b0ba81e}, !- Handle
   74,                                    !- Name
  Wall,                                   !- Surface Type
  ,                                       !- Construction Name
  {7090b3d0-964e-4a0a-8309-3d4ba4730370}, !- Space Name
  Outdoors,                               !- Outside Boundary Condition
  ,                                       !- Outside Boundary Condition Object
  SunExposed,                             !- Sun Exposure
  WindExposed,                            !- Wind Exposure
  ,                                       !- View Factor to Ground
  ,                                       !- Number of Vertices
  32.9184, 17.6784, 3,                    !- X,Y,Z Vertex 1 {m}
  32.9184, 17.6784, 0,                    !- X,Y,Z Vertex 2 {m}
  29.8704, 17.6784, 0,                    !- X,Y,Z Vertex 3 {m}
  29.8704, 17.6784, 3;                    !- X,Y,Z Vertex 4 {m}

OS:Surface,
  {b04439f3-2a8e-405c-b169-89ce74462a8b}, !- Handle
   75,                                    !- Name
  Wall,                                   !- Surface Type
  ,                                       !- Construction Name
  {7090b3d0-964e-4a0a-8309-3d4ba4730370}, !- Space Name
  Surface,                                !- Outside Boundary Condition
  {b1668abd-b639-4f4b-8686-bfb8cda3eba2}, !- Outside Boundary Condition Object
  NoSun,                                  !- Sun Exposure
  NoWind,                                 !- Wind Exposure
  ,                                       !- View Factor to Ground
  ,                                       !- Number of Vertices
  32.9184, 10.9728, 3,                    !- X,Y,Z Vertex 1 {m}
  32.9184, 10.9728, 0,                    !- X,Y,Z Vertex 2 {m}
  32.9184, 17.6784, 0,                    !- X,Y,Z Vertex 3 {m}
  32.9184, 17.6784, 3;                    !- X,Y,Z Vertex 4 {m}

OS:Space,
  {3a377bee-0b5e-4fb7-b5c0-0655efe7feec}, !- Handle
  Space 2 - 4,                            !- Name
  {6497d4ca-10d1-4783-9b73-7bf7d3da1a20}, !- Space Type Name
  ,                                       !- Default Construction Set Name
  ,                                       !- Default Schedule Set Name
  ,                                       !- Direction of Relative North {deg}
  ,                                       !- X Origin {m}
  ,                                       !- Y Origin {m}
  ,                                       !- Z Origin {m}
  ,                                       !- Building Story Name
  {5e51e4d3-b225-4f01-99d0-075090c88324}, !- Thermal Zone Name
  ,                                       !- Part of Total Floor Area
  ,                                       !- Design Specification Outdoor Air Object Name
  {175dae8f-7872-407b-8ad7-116d74fd2726}; !- Building Unit Name

OS:SpaceType,
  {6497d4ca-10d1-4783-9b73-7bf7d3da1a20}, !- Handle
  bathroom,                               !- Name
  ,                                       !- Default Construction Set Name
  ,                                       !- Default Schedule Set Name
  ,                                       !- Group Rendering Name
  ,                                       !- Design Specification Outdoor Air Object Name
  ,                                       !- Standards Building Type
  bathroom;                               !- Standards Space Type

OS:Surface,
  {1e36971c-4915-45a8-97da-4c2ddaa4e9ee}, !- Handle
   110,                                   !- Name
  Floor,                                  !- Surface Type
  ,                                       !- Construction Name
  {3a377bee-0b5e-4fb7-b5c0-0655efe7feec}, !- Space Name
  Surface,                                !- Outside Boundary Condition
  {882a27b4-4afd-4e60-9148-74cc04ccf22d}, !- Outside Boundary Condition Object
  NoSun,                                  !- Sun Exposure
  NoWind,                                 !- Wind Exposure
  ,                                       !- View Factor to Ground
  ,                                       !- Number of Vertices
  -16.4592, 10.9728, 3,                   !- X,Y,Z Vertex 1 {m}
  -20.7264, 10.9728, 3,                   !- X,Y,Z Vertex 2 {m}
  -20.7264, 12.8016, 3,                   !- X,Y,Z Vertex 3 {m}
  -16.4592, 12.8016, 3;                   !- X,Y,Z Vertex 4 {m}

OS:Surface,
  {01b1800f-8aaa-4a02-90f1-c49021b250f1}, !- Handle
   111,                                   !- Name
  RoofCeiling,                            !- Surface Type
  ,                                       !- Construction Name
  {3a377bee-0b5e-4fb7-b5c0-0655efe7feec}, !- Space Name
  Surface,                                !- Outside Boundary Condition
  {2592d3a6-413d-49e2-b9fd-7e8b53bfb2bc}, !- Outside Boundary Condition Object
  NoSun,                                  !- Sun Exposure
  NoWind,                                 !- Wind Exposure
  ,                                       !- View Factor to Ground
  ,                                       !- Number of Vertices
  -16.4592, 12.8016, 6,                   !- X,Y,Z Vertex 1 {m}
  -20.7264, 12.8016, 6,                   !- X,Y,Z Vertex 2 {m}
  -20.7264, 10.9728, 6,                   !- X,Y,Z Vertex 3 {m}
  -16.4592, 10.9728, 6;                   !- X,Y,Z Vertex 4 {m}

OS:Surface,
  {a12dcb49-e500-4842-8465-c54dac7c8409}, !- Handle
   112,                                   !- Name
  Wall,                                   !- Surface Type
  ,                                       !- Construction Name
  {3a377bee-0b5e-4fb7-b5c0-0655efe7feec}, !- Space Name
  Outdoors,                               !- Outside Boundary Condition
  ,                                       !- Outside Boundary Condition Object
  SunExposed,                             !- Sun Exposure
  WindExposed,                            !- Wind Exposure
  ,                                       !- View Factor to Ground
  ,                                       !- Number of Vertices
  -20.7264, 10.9728, 6,                   !- X,Y,Z Vertex 1 {m}
  -20.7264, 10.9728, 3,                   !- X,Y,Z Vertex 2 {m}
  -16.4592, 10.9728, 3,                   !- X,Y,Z Vertex 3 {m}
  -16.4592, 10.9728, 6;                   !- X,Y,Z Vertex 4 {m}

OS:Surface,
  {1cf29838-50a6-4dcf-81f8-3edbfe52ccb4}, !- Handle
   113,                                   !- Name
  Wall,                                   !- Surface Type
  ,                                       !- Construction Name
  {3a377bee-0b5e-4fb7-b5c0-0655efe7feec}, !- Space Name
  Outdoors,                               !- Outside Boundary Condition
  ,                                       !- Outside Boundary Condition Object
  SunExposed,                             !- Sun Exposure
  WindExposed,                            !- Wind Exposure
  ,                                       !- View Factor to Ground
  ,                                       !- Number of Vertices
  -20.7264, 12.8016, 6,                   !- X,Y,Z Vertex 1 {m}
  -20.7264, 12.8016, 3,                   !- X,Y,Z Vertex 2 {m}
  -20.7264, 10.9728, 3,                   !- X,Y,Z Vertex 3 {m}
  -20.7264, 10.9728, 6;                   !- X,Y,Z Vertex 4 {m}

OS:Surface,
  {7c69d1ec-848c-4772-b48d-a8b5da2ebf73}, !- Handle
   114,                                   !- Name
  Wall,                                   !- Surface Type
  ,                                       !- Construction Name
  {3a377bee-0b5e-4fb7-b5c0-0655efe7feec}, !- Space Name
  Surface,                                !- Outside Boundary Condition
  {1191dda4-0e39-4c6a-bfcc-4972bc0f6a1a}, !- Outside Boundary Condition Object
  NoSun,                                  !- Sun Exposure
  NoWind,                                 !- Wind Exposure
  ,                                       !- View Factor to Ground
  ,                                       !- Number of Vertices
  -16.4592, 12.8016, 6,                   !- X,Y,Z Vertex 1 {m}
  -16.4592, 12.8016, 3,                   !- X,Y,Z Vertex 2 {m}
  -20.7264, 12.8016, 3,                   !- X,Y,Z Vertex 3 {m}
  -20.7264, 12.8016, 6;                   !- X,Y,Z Vertex 4 {m}

OS:Surface,
  {2371b2f5-441c-43d6-8be1-23886dbfeb24}, !- Handle
   115,                                   !- Name
  Wall,                                   !- Surface Type
  ,                                       !- Construction Name
  {3a377bee-0b5e-4fb7-b5c0-0655efe7feec}, !- Space Name
  Surface,                                !- Outside Boundary Condition
  {3ec10f4a-5c6c-4f86-a1f9-18ec4c57dfee}, !- Outside Boundary Condition Object
  NoSun,                                  !- Sun Exposure
  NoWind,                                 !- Wind Exposure
  ,                                       !- View Factor to Ground
  ,                                       !- Number of Vertices
  -16.4592, 10.9728, 6,                   !- X,Y,Z Vertex 1 {m}
  -16.4592, 10.9728, 3,                   !- X,Y,Z Vertex 2 {m}
  -16.4592, 12.8016, 3,                   !- X,Y,Z Vertex 3 {m}
  -16.4592, 12.8016, 6;                   !- X,Y,Z Vertex 4 {m}

OS:Space,
  {82cf2131-29a7-4359-9a70-26990b039be6}, !- Handle
  Space 3 - 2,                            !- Name
  {715bfc43-1b1e-4422-abbf-e5c66da5cea8}, !- Space Type Name
  ,                                       !- Default Construction Set Name
  ,                                       !- Default Schedule Set Name
  ,                                       !- Direction of Relative North {deg}
  ,                                       !- X Origin {m}
  ,                                       !- Y Origin {m}
  ,                                       !- Z Origin {m}
  ,                                       !- Building Story Name
  {2dff148e-031a-4b1e-87ad-e525680644f8}, !- Thermal Zone Name
  ,                                       !- Part of Total Floor Area
  ,                                       !- Design Specification Outdoor Air Object Name
  {776291e4-0b9b-46f4-8ff0-5be8ec6a14e2}; !- Building Unit Name

OS:SpaceType,
  {715bfc43-1b1e-4422-abbf-e5c66da5cea8}, !- Handle
  attic,                                  !- Name
  ,                                       !- Default Construction Set Name
  ,                                       !- Default Schedule Set Name
  ,                                       !- Group Rendering Name
  ,                                       !- Design Specification Outdoor Air Object Name
  ,                                       !- Standards Building Type
  attic;                                  !- Standards Space Type

OS:Surface,
  {8441c97d-d88a-4174-830f-9b62f4504773}, !- Handle
  Surface 6,                              !- Name
  Floor,                                  !- Surface Type
  ,                                       !- Construction Name
  {82cf2131-29a7-4359-9a70-26990b039be6}, !- Space Name
  Surface,                                !- Outside Boundary Condition
  {e4a5b41c-9abb-4819-87e2-103e57114c9e}, !- Outside Boundary Condition Object
  NoSun,                                  !- Sun Exposure
  NoWind,                                 !- Wind Exposure
  ,                                       !- View Factor to Ground
  ,                                       !- Number of Vertices
  34.1376, 17.6784, 6,                    !- X,Y,Z Vertex 1 {m}
  34.1376, 10.9728, 6,                    !- X,Y,Z Vertex 2 {m}
  11.6096411879823, 10.9728, 6,           !- X,Y,Z Vertex 3 {m}
  11.6096411879823, 17.6784, 6;           !- X,Y,Z Vertex 4 {m}

OS:Surface,
  {0e2f0a28-c744-4e22-8450-cd18770cea94}, !- Handle
  Surface 7,                              !- Name
  Floor,                                  !- Surface Type
  ,                                       !- Construction Name
  {82cf2131-29a7-4359-9a70-26990b039be6}, !- Space Name
  Ground,                                 !- Outside Boundary Condition
  ,                                       !- Outside Boundary Condition Object
  NoSun,                                  !- Sun Exposure
  NoWind,                                 !- Wind Exposure
  ,                                       !- View Factor to Ground
  ,                                       !- Number of Vertices
  34.1376, 17.7056385167548, 6,           !- X,Y,Z Vertex 1 {m}
  34.1376, 17.6784, 6,                    !- X,Y,Z Vertex 2 {m}
  11.6096411879823, 17.6784, 6,           !- X,Y,Z Vertex 3 {m}
  11.6096411879823, 10.9728, 6,           !- X,Y,Z Vertex 4 {m}
  11.5824, 10.9728, 6,                    !- X,Y,Z Vertex 5 {m}
  11.5824, 17.6784, 6,                    !- X,Y,Z Vertex 6 {m}
  6.096, 17.6784, 6,                      !- X,Y,Z Vertex 7 {m}
  6.096, 17.7056385167548, 6;             !- X,Y,Z Vertex 8 {m}

OS:Surface,
  {08705de7-fa65-4a0b-99d7-98fc35309e16}, !- Handle
   142,                                   !- Name
  Floor,                                  !- Surface Type
  ,                                       !- Construction Name
  {82cf2131-29a7-4359-9a70-26990b039be6}, !- Space Name
  Surface,                                !- Outside Boundary Condition
  {7bbdc13e-45a9-491c-b3ea-49c901a1692a}, !- Outside Boundary Condition Object
  NoSun,                                  !- Sun Exposure
  NoWind,                                 !- Wind Exposure
  ,                                       !- View Factor to Ground
  ,                                       !- Number of Vertices
  11.5824, 17.6784, 6,                    !- X,Y,Z Vertex 1 {m}
  11.5824, 10.9728, 6,                    !- X,Y,Z Vertex 2 {m}
  10.3632, 10.9728, 6,                    !- X,Y,Z Vertex 3 {m}
  10.3632, 17.6784, 6;                    !- X,Y,Z Vertex 4 {m}

OS:Surface,
  {224931b0-0332-4f3c-bf49-2d011be11509}, !- Handle
   143,                                   !- Name