!- NOTE: Auto-generated from /test/osw_files/MF_2units_Multizone_2story_SL_UA_GRG_2Bed_2Bath_Denver_GasWHTank.osw

OS:Version,
  {fc003c06-618b-4051-9b37-6b6f71b12672}, !- Handle
  2.2.0;                                  !- Version Identifier

OS:Building,
  {bf305633-c5a1-4881-9edf-ca5e1a8e1274}, !- Handle
  Building,                               !- Name
  ,                                       !- Building Sector Type
  ,                                       !- North Axis {deg}
  ,                                       !- Nominal Floor to Floor Height {m}
  ,                                       !- Space Type Name
  ,                                       !- Default Construction Set Name
  ,                                       !- Default Schedule Set Name
  ,                                       !- Standards Number of Stories
  2,                                      !- Standards Number of Above Ground Stories
  singlefamilyttached;                    !- Standards Building Type

OS:YearDescription,
  {513d8dda-86cb-442a-b01c-1f7f0e0ac70e}; !- Handle

OS:SimulationControl,
  {2c487a4c-bac9-4ac5-b669-1e49d9da7c2b}, !- Handle
  ,                                       !- Do Zone Sizing Calculation
  ,                                       !- Do System Sizing Calculation
  ,                                       !- Do Plant Sizing Calculation
  No,                                     !- Run Simulation for Sizing Periods
  ;                                       !- Run Simulation for Weather File Run Periods

OS:Timestep,
  {4ebc9f1e-4707-402e-9844-67eb1ffbd522}, !- Handle
  6;                                      !- Number of Timesteps per Hour

OS:RunPeriod,
  {28df894d-6af9-4fb8-8f56-df1753344aa3}, !- Handle
  Run Period,                             !- Name
  1,                                      !- Begin Month
  1,                                      !- Begin Day of Month
  12,                                     !- End Month
  31,                                     !- End Day of Month
  ,                                       !- Use Weather File Holidays and Special Days
  ,                                       !- Use Weather File Daylight Saving Period
  ,                                       !- Apply Weekend Holiday Rule
  ,                                       !- Use Weather File Rain Indicators
  ,                                       !- Use Weather File Snow Indicators
  ;                                       !- Number of Times Runperiod to be Repeated

OS:Sizing:Parameters,
  {dde5af6f-7923-4600-a28a-7556673a0266}, !- Handle
  1.0,                                    !- Heating Sizing Factor
  1.0;                                    !- Cooling Sizing Factor

OS:ShadowCalculation,
  {ca758bea-4416-4626-9bba-3d8795c79bd6}, !- Handle
  20,                                     !- Calculation Frequency
  200;                                    !- Maximum Figures in Shadow Overlap Calculations

OS:SurfaceConvectionAlgorithm:Inside,
  {aaabfc36-718a-4ab0-b622-f186ebb45230}, !- Handle
  TARP;                                   !- Algorithm

OS:SurfaceConvectionAlgorithm:Outside,
  {9a0a9f6f-4bbd-4b12-a121-9492a1fcd7d6}, !- Handle
  DOE-2;                                  !- Algorithm

OS:HeatBalanceAlgorithm,
  {9d93e563-e1e0-46d7-9e39-d1c8aceb7212}, !- Handle
  ConductionTransferFunction,             !- Algorithm
  200;                                    !- Surface Temperature Upper Limit {C}

OS:ZoneCapacitanceMultiplier:ResearchSpecial,
  {6bfced16-b16f-47f6-8223-f7e267d75d19}, !- Handle
  ,                                       !- Temperature Capacity Multiplier
  15,                                     !- Humidity Capacity Multiplier
  ;                                       !- Carbon Dioxide Capacity Multiplier

OS:Space,
  {e290ff9b-b640-472e-bf9c-b9548caf2b65}, !- Handle
  Space 2 - 1,                            !- Name
  {bbcf5ac2-a8bd-4832-85ed-b87c519fbf75}, !- Space Type Name
  ,                                       !- Default Construction Set Name
  ,                                       !- Default Schedule Set Name
  ,                                       !- Direction of Relative North {deg}
  ,                                       !- X Origin {m}
  ,                                       !- Y Origin {m}
  ,                                       !- Z Origin {m}
  ,                                       !- Building Story Name
  {9d7c2712-ef33-4ad3-970e-dd7bcdf6591c}, !- Thermal Zone Name
  ,                                       !- Part of Total Floor Area
  ,                                       !- Design Specification Outdoor Air Object Name
  {df38b697-78b8-4bb1-8898-940781a45461}; !- Building Unit Name

OS:SpaceType,
  {bbcf5ac2-a8bd-4832-85ed-b87c519fbf75}, !- Handle
  112,                                    !- Name
  ,                                       !- Default Construction Set Name
  ,                                       !- Default Schedule Set Name
  ,                                       !- Group Rendering Name
  ,                                       !- Design Specification Outdoor Air Object Name
  ,                                       !- Standards Building Type
  living;                                 !- Standards Space Type

OS:Surface,
  {631417e2-ead9-42a3-ab64-1a85644f2453}, !- Handle
   89,                                    !- Name
  Floor,                                  !- Surface Type
  ,                                       !- Construction Name
  {e290ff9b-b640-472e-bf9c-b9548caf2b65}, !- Space Name
  Surface,                                !- Outside Boundary Condition
  {fd913a93-6e61-4f0f-b27b-e68be1029b56}, !- Outside Boundary Condition Object
  NoSun,                                  !- Sun Exposure
  NoWind,                                 !- Wind Exposure
  ,                                       !- View Factor to Ground
  ,                                       !- Number of Vertices
  20, 58, 3,                              !- X,Y,Z Vertex 1 {m}
  20, 36, 3,                              !- X,Y,Z Vertex 2 {m}
  19.91062602368, 36, 3,                  !- X,Y,Z Vertex 3 {m}
  19.91062602368, 58, 3;                  !- X,Y,Z Vertex 4 {m}

OS:Surface,
  {8f06d0b9-22d2-49dd-a1de-89712075bc78}, !- Handle
   90,                                    !- Name
  RoofCeiling,                            !- Surface Type
  ,                                       !- Construction Name
  {e290ff9b-b640-472e-bf9c-b9548caf2b65}, !- Space Name
  Surface,                                !- Outside Boundary Condition
  {4eca0e02-04ae-4ea4-b094-22a899e80aa7}, !- Outside Boundary Condition Object
  NoSun,                                  !- Sun Exposure
  NoWind,                                 !- Wind Exposure
  ,                                       !- View Factor to Ground
  ,                                       !- Number of Vertices
  19.91062602368, 36, 6,                  !- X,Y,Z Vertex 1 {m}
  19.91062602368, 58, 6,                  !- X,Y,Z Vertex 2 {m}
  -50, 58, 6,                             !- X,Y,Z Vertex 3 {m}
  -50, 36, 6;                             !- X,Y,Z Vertex 4 {m}

OS:Surface,
  {dd664e4e-4dee-410d-84ed-f85e00d4b1ae}, !- Handle
   91,                                    !- Name
  Wall,                                   !- Surface Type
  ,                                       !- Construction Name
  {e290ff9b-b640-472e-bf9c-b9548caf2b65}, !- Space Name
  Outdoors,                               !- Outside Boundary Condition
  ,                                       !- Outside Boundary Condition Object
  SunExposed,                             !- Sun Exposure
  WindExposed,                            !- Wind Exposure
  ,                                       !- View Factor to Ground
  ,                                       !- Number of Vertices
  19.91062602368, 36, 6,                  !- X,Y,Z Vertex 1 {m}
  19.91062602368, 36, 3,                  !- X,Y,Z Vertex 2 {m}
  20, 36, 3,                              !- X,Y,Z Vertex 3 {m}
  20, 36, 6;                              !- X,Y,Z Vertex 4 {m}

OS:Surface,
  {b70e8931-7bee-405f-a412-e84d8139333d}, !- Handle
   92,                                    !- Name
  Wall,                                   !- Surface Type
  ,                                       !- Construction Name
  {e290ff9b-b640-472e-bf9c-b9548caf2b65}, !- Space Name
  Outdoors,                               !- Outside Boundary Condition
  ,                                       !- Outside Boundary Condition Object
  SunExposed,                             !- Sun Exposure
  WindExposed,                            !- Wind Exposure
  ,                                       !- View Factor to Ground
  ,                                       !- Number of Vertices
  -50, 36, 6,                             !- X,Y,Z Vertex 1 {m}
  -50, 36, 3,                             !- X,Y,Z Vertex 2 {m}
  19.91062602368, 36, 3,                  !- X,Y,Z Vertex 3 {m}
  19.91062602368, 36, 6;                  !- X,Y,Z Vertex 4 {m}

OS:Surface,
  {70fe8d2b-75e7-4098-a46f-830b37691e54}, !- Handle
   93,                                    !- Name
  Wall,                                   !- Surface Type
  ,                                       !- Construction Name
  {e290ff9b-b640-472e-bf9c-b9548caf2b65}, !- Space Name
  Surface,                                !- Outside Boundary Condition
  {f333c3a3-df2f-4fe5-a008-f1f4909b2526}, !- Outside Boundary Condition Object
  NoSun,                                  !- Sun Exposure
  NoWind,                                 !- Wind Exposure
  ,                                       !- View Factor to Ground
  ,                                       !- Number of Vertices
  -50, 58, 6,                             !- X,Y,Z Vertex 1 {m}
  -50, 58, 3,                             !- X,Y,Z Vertex 2 {m}
  -50, 36, 3,                             !- X,Y,Z Vertex 3 {m}
  -50, 36, 6;                             !- X,Y,Z Vertex 4 {m}

OS:Surface,
  {ba008743-df4e-4d28-8152-b06004b51af6}, !- Handle
   94,                                    !- Name
  Wall,                                   !- Surface Type
  ,                                       !- Construction Name
  {e290ff9b-b640-472e-bf9c-b9548caf2b65}, !- Space Name
  Outdoors,                               !- Outside Boundary Condition
  ,                                       !- Outside Boundary Condition Object
  SunExposed,                             !- Sun Exposure
  WindExposed,                            !- Wind Exposure
  ,                                       !- View Factor to Ground
  ,                                       !- Number of Vertices
  19.91062602368, 58, 6,                  !- X,Y,Z Vertex 1 {m}
  19.91062602368, 58, 3,                  !- X,Y,Z Vertex 2 {m}
  -50, 58, 3,                             !- X,Y,Z Vertex 3 {m}
  -50, 58, 6;                             !- X,Y,Z Vertex 4 {m}

OS:Surface,
  {c1f0c9f5-334c-42bf-bbef-1d2dd0eb0cd1}, !- Handle
   95,                                    !- Name
  Wall,                                   !- Surface Type
  ,                                       !- Construction Name
  {e290ff9b-b640-472e-bf9c-b9548caf2b65}, !- Space Name
  Outdoors,                               !- Outside Boundary Condition
  ,                                       !- Outside Boundary Condition Object
  SunExposed,                             !- Sun Exposure
  WindExposed,                            !- Wind Exposure
  ,                                       !- View Factor to Ground
  ,                                       !- Number of Vertices
  20, 58, 6,                              !- X,Y,Z Vertex 1 {m}
  20, 58, 3,                              !- X,Y,Z Vertex 2 {m}
  19.91062602368, 58, 3,                  !- X,Y,Z Vertex 3 {m}
  19.91062602368, 58, 6;                  !- X,Y,Z Vertex 4 {m}

OS:Surface,
  {955d6f65-15f9-4485-a702-7a7cedf69765}, !- Handle
   96,                                    !- Name
  Wall,                                   !- Surface Type
  ,                                       !- Construction Name
  {e290ff9b-b640-472e-bf9c-b9548caf2b65}, !- Space Name
  Outdoors,                               !- Outside Boundary Condition
  ,                                       !- Outside Boundary Condition Object
  SunExposed,                             !- Sun Exposure
  WindExposed,                            !- Wind Exposure
  ,                                       !- View Factor to Ground
  ,                                       !- Number of Vertices
  20, 36, 6,                              !- X,Y,Z Vertex 1 {m}
  20, 36, 3,                              !- X,Y,Z Vertex 2 {m}
  20, 58, 3,                              !- X,Y,Z Vertex 3 {m}
  20, 58, 6;                              !- X,Y,Z Vertex 4 {m}

OS:Space,
  {9055e972-706b-4575-a5a1-7659ba829ce0}, !- Handle
  Space 2 - 2,                            !- Name
  {bbcf5ac2-a8bd-4832-85ed-b87c519fbf75}, !- Space Type Name
  ,                                       !- Default Construction Set Name
  ,                                       !- Default Schedule Set Name
  ,                                       !- Direction of Relative North {deg}
  ,                                       !- X Origin {m}
  ,                                       !- Y Origin {m}
  ,                                       !- Z Origin {m}
  ,                                       !- Building Story Name
  {e5688cbe-e164-4004-8b78-74a1a22930c5}, !- Thermal Zone Name
  ,                                       !- Part of Total Floor Area
  ,                                       !- Design Specification Outdoor Air Object Name
  {df38b697-78b8-4bb1-8898-940781a45461}; !- Building Unit Name

OS:Surface,
  {a323844e-a438-4d7b-bc80-013f3174f95d}, !- Handle
   97,                                    !- Name
  Floor,                                  !- Surface Type
  ,                                       !- Construction Name
  {9055e972-706b-4575-a5a1-7659ba829ce0}, !- Space Name
  Surface,                                !- Outside Boundary Condition
  {1f469e4c-d732-4964-9496-ffa205face38}, !- Outside Boundary Condition Object
  NoSun,                                  !- Sun Exposure
  NoWind,                                 !- Wind Exposure
  ,                                       !- View Factor to Ground
  ,                                       !- Number of Vertices
  -50, 36, 3,                             !- X,Y,Z Vertex 1 {m}
  -54, 36, 3,                             !- X,Y,Z Vertex 2 {m}
  -54, 42, 3,                             !- X,Y,Z Vertex 3 {m}
  -54, 58, 3,                             !- X,Y,Z Vertex 4 {m}
  -50, 58, 3;                             !- X,Y,Z Vertex 5 {m}

OS:Surface,
  {aa019796-c9a1-46c7-9c53-647aa3dfdc52}, !- Handle
   98,                                    !- Name
  RoofCeiling,                            !- Surface Type
  ,                                       !- Construction Name
  {9055e972-706b-4575-a5a1-7659ba829ce0}, !- Space Name
  Surface,                                !- Outside Boundary Condition
  {66d12019-5cbc-46b3-9852-f2f4198e7bfb}, !- Outside Boundary Condition Object
  NoSun,                                  !- Sun Exposure
  NoWind,                                 !- Wind Exposure
  ,                                       !- View Factor to Ground
  ,                                       !- Number of Vertices
  -50, 36, 6,                             !- X,Y,Z Vertex 1 {m}
  -50, 58, 6,                             !- X,Y,Z Vertex 2 {m}
  -54, 58, 6,                             !- X,Y,Z Vertex 3 {m}
  -54, 36, 6;                             !- X,Y,Z Vertex 4 {m}

OS:Surface,
  {31047a43-8f3f-4d33-920e-4687f8155d2e}, !- Handle
   99,                                    !- Name
  Wall,                                   !- Surface Type
  ,                                       !- Construction Name
  {9055e972-706b-4575-a5a1-7659ba829ce0}, !- Space Name
  Outdoors,                               !- Outside Boundary Condition
  ,                                       !- Outside Boundary Condition Object
  SunExposed,                             !- Sun Exposure
  WindExposed,                            !- Wind Exposure
  ,                                       !- View Factor to Ground
  ,                                       !- Number of Vertices
  -54, 36, 6,                             !- X,Y,Z Vertex 1 {m}
  -54, 36, 3,                             !- X,Y,Z Vertex 2 {m}
  -50, 36, 3,                             !- X,Y,Z Vertex 3 {m}
  -50, 36, 6;                             !- X,Y,Z Vertex 4 {m}

OS:Surface,
  {436268a2-f723-484a-8c12-0b4b754cbe00}, !- Handle
   100,                                   !- Name
  Wall,                                   !- Surface Type
  ,                                       !- Construction Name
  {9055e972-706b-4575-a5a1-7659ba829ce0}, !- Space Name
  Surface,                                !- Outside Boundary Condition
  {8d97ed1e-360d-4e33-84c4-b2e7735228fd}, !- Outside Boundary Condition Object
  NoSun,                                  !- Sun Exposure
  NoWind,                                 !- Wind Exposure
  ,                                       !- View Factor to Ground
  ,                                       !- Number of Vertices
  -54, 42, 6,                             !- X,Y,Z Vertex 1 {m}
  -54, 42, 3,                             !- X,Y,Z Vertex 2 {m}
  -54, 36, 3,                             !- X,Y,Z Vertex 3 {m}
  -54, 36, 6;                             !- X,Y,Z Vertex 4 {m}

OS:Surface,
  {961ab209-90b6-4dbd-b841-35aaa5317be5}, !- Handle
   101,                                   !- Name
  Wall,                                   !- Surface Type
  ,                                       !- Construction Name
  {9055e972-706b-4575-a5a1-7659ba829ce0}, !- Space Name
  Surface,                                !- Outside Boundary Condition
  {94008dfa-a4bc-4947-932a-3e888861d7e8}, !- Outside Boundary Condition Object
  NoSun,                                  !- Sun Exposure
  NoWind,                                 !- Wind Exposure
  ,                                       !- View Factor to Ground
  ,                                       !- Number of Vertices
  -54, 58, 6,                             !- X,Y,Z Vertex 1 {m}
  -54, 58, 3,                             !- X,Y,Z Vertex 2 {m}
  -54, 42, 3,                             !- X,Y,Z Vertex 3 {m}
  -54, 42, 6;                             !- X,Y,Z Vertex 4 {m}

OS:Surface,
  {be8c8907-bb93-4e4b-9a82-e5603fe0c0d1}, !- Handle
   102,                                   !- Name
  Wall,                                   !- Surface Type
  ,                                       !- Construction Name
  {9055e972-706b-4575-a5a1-7659ba829ce0}, !- Space Name
  Outdoors,                               !- Outside Boundary Condition
  ,                                       !- Outside Boundary Condition Object
  SunExposed,                             !- Sun Exposure
  WindExposed,                            !- Wind Exposure
  ,                                       !- View Factor to Ground
  ,                                       !- Number of Vertices
  -50, 58, 6,                             !- X,Y,Z Vertex 1 {m}
  -50, 58, 3,                             !- X,Y,Z Vertex 2 {m}
  -54, 58, 3,                             !- X,Y,Z Vertex 3 {m}
  -54, 58, 6;                             !- X,Y,Z Vertex 4 {m}

OS:Surface,
  {f333c3a3-df2f-4fe5-a008-f1f4909b2526}, !- Handle
   103,                                   !- Name
  Wall,                                   !- Surface Type
  ,                                       !- Construction Name
  {9055e972-706b-4575-a5a1-7659ba829ce0}, !- Space Name
  Surface,                                !- Outside Boundary Condition
  {70fe8d2b-75e7-4098-a46f-830b37691e54}, !- Outside Boundary Condition Object
  NoSun,                                  !- Sun Exposure
  NoWind,                                 !- Wind Exposure
  ,                                       !- View Factor to Ground
  ,                                       !- Number of Vertices
  -50, 36, 6,                             !- X,Y,Z Vertex 1 {m}
  -50, 36, 3,                             !- X,Y,Z Vertex 2 {m}
  -50, 58, 3,                             !- X,Y,Z Vertex 3 {m}
  -50, 58, 6;                             !- X,Y,Z Vertex 4 {m}

OS:Space,
  {d8c49b4f-d9f7-4f1a-beaa-073f306d6ec5}, !- Handle
  Space 1 - 10,                           !- Name
  {bbcf5ac2-a8bd-4832-85ed-b87c519fbf75}, !- Space Type Name
  ,                                       !- Default Construction Set Name
  ,                                       !- Default Schedule Set Name
  ,                                       !- Direction of Relative North {deg}
  ,                                       !- X Origin {m}
  ,                                       !- Y Origin {m}
  ,                                       !- Z Origin {m}
  ,                                       !- Building Story Name
  {b34ca8c6-4fa8-44be-88ee-4d07ead3a613}, !- Thermal Zone Name
  ,                                       !- Part of Total Floor Area
  ,                                       !- Design Specification Outdoor Air Object Name
  {c0676039-5a05-4dc4-ab58-6a7c9afa0b42}; !- Building Unit Name

OS:Surface,
  {7fc4b5f9-277d-45d9-bc42-545c86b9a88f}, !- Handle
   56,                                    !- Name
  Floor,                                  !- Surface Type
  ,                                       !- Construction Name
  {d8c49b4f-d9f7-4f1a-beaa-073f306d6ec5}, !- Space Name
  Ground,                                 !- Outside Boundary Condition
  ,                                       !- Outside Boundary Condition Object
  NoSun,                                  !- Sun Exposure
  NoWind,                                 !- Wind Exposure
  ,                                       !- View Factor to Ground
  ,                                       !- Number of Vertices
  38, 58, 0,                              !- X,Y,Z Vertex 1 {m}
  86, 58, 0,                              !- X,Y,Z Vertex 2 {m}
  86, 36, 0,                              !- X,Y,Z Vertex 3 {m}
  38, 36, 0;                              !- X,Y,Z Vertex 4 {m}

OS:Surface,
  {55122cdf-e9d5-4269-ae8f-734e0cecf6ec}, !- Handle
   57,                                    !- Name
  RoofCeiling,                            !- Surface Type
  ,                                       !- Construction Name
  {d8c49b4f-d9f7-4f1a-beaa-073f306d6ec5}, !- Space Name
  Surface,                                !- Outside Boundary Condition
  {01592040-1047-4b0c-a601-8264b02b8e3b}, !- Outside Boundary Condition Object
  NoSun,                                  !- Sun Exposure
  NoWind,                                 !- Wind Exposure
  ,                                       !- View Factor to Ground
  ,                                       !- Number of Vertices
  86, 36, 3,                              !- X,Y,Z Vertex 1 {m}
  86, 58, 3,                              !- X,Y,Z Vertex 2 {m}
  38.08937397632, 58, 3,                  !- X,Y,Z Vertex 3 {m}
  38.08937397632, 36, 3;                  !- X,Y,Z Vertex 4 {m}

OS:Surface,
  {d233ca6e-0fee-44b7-adfa-8aeb29056eb1}, !- Handle
   58,                                    !- Name
  Wall,                                   !- Surface Type
  ,                                       !- Construction Name
  {d8c49b4f-d9f7-4f1a-beaa-073f306d6ec5}, !- Space Name
  Outdoors,                               !- Outside Boundary Condition
  ,                                       !- Outside Boundary Condition Object
  SunExposed,                             !- Sun Exposure
  WindExposed,                            !- Wind Exposure
  ,                                       !- View Factor to Ground
  ,                                       !- Number of Vertices
  86, 58, 3,                              !- X,Y,Z Vertex 1 {m}
  86, 58, 0,                              !- X,Y,Z Vertex 2 {m}
  38, 58, 0,                              !- X,Y,Z Vertex 3 {m}
  38, 58, 3;                              !- X,Y,Z Vertex 4 {m}

OS:Surface,
  {527bdc06-b63a-4afe-ae3e-24d27f21b9ec}, !- Handle
   59,                                    !- Name
  Wall,                                   !- Surface Type
  ,                                       !- Construction Name
  {d8c49b4f-d9f7-4f1a-beaa-073f306d6ec5}, !- Space Name
  Surface,                                !- Outside Boundary Condition
  {e64bfb5a-c82f-49f3-8cf2-6e69dc0f7d30}, !- Outside Boundary Condition Object
  NoSun,                                  !- Sun Exposure
  NoWind,                                 !- Wind Exposure
  ,                                       !- View Factor to Ground
  ,                                       !- Number of Vertices
  86, 36, 3,                              !- X,Y,Z Vertex 1 {m}
  86, 36, 0,                              !- X,Y,Z Vertex 2 {m}
  86, 58, 0,                              !- X,Y,Z Vertex 3 {m}
  86, 58, 3;                              !- X,Y,Z Vertex 4 {m}

OS:Surface,
  {c36cc88e-7897-4b2f-a837-4e07ab9d5c51}, !- Handle
   60,                                    !- Name
  Wall,                                   !- Surface Type
  ,                                       !- Construction Name
  {d8c49b4f-d9f7-4f1a-beaa-073f306d6ec5}, !- Space Name
  Outdoors,                               !- Outside Boundary Condition
  ,                                       !- Outside Boundary Condition Object
  SunExposed,                             !- Sun Exposure
  WindExposed,                            !- Wind Exposure
  ,                                       !- View Factor to Ground
  ,                                       !- Number of Vertices
  38, 36, 3,                              !- X,Y,Z Vertex 1 {m}
  38, 36, 0,                              !- X,Y,Z Vertex 2 {m}
  86, 36, 0,                              !- X,Y,Z Vertex 3 {m}
  86, 36, 3;                              !- X,Y,Z Vertex 4 {m}

OS:Surface,
  {c2435d9f-b74e-499f-bab9-b2c12ad228cf}, !- Handle
   61,                                    !- Name
  Wall,                                   !- Surface Type
  ,                                       !- Construction Name
  {d8c49b4f-d9f7-4f1a-beaa-073f306d6ec5}, !- Space Name
  Surface,                                !- Outside Boundary Condition
  {5282cc13-6a88-4da8-9c52-d1de8268c63d}, !- Outside Boundary Condition Object
  NoSun,                                  !- Sun Exposure
  NoWind,                                 !- Wind Exposure
  ,                                       !- View Factor to Ground
  ,                                       !- Number of Vertices
  38, 58, 3,                              !- X,Y,Z Vertex 1 {m}
  38, 58, 0,                              !- X,Y,Z Vertex 2 {m}
  38, 36, 0,                              !- X,Y,Z Vertex 3 {m}
  38, 36, 3;                              !- X,Y,Z Vertex 4 {m}

OS:Space,
  {3651bd33-e3e0-45b6-b64b-3f054bd05ef7}, !- Handle
  Space 1 - 12,                           !- Name
  {d98a30b0-6e5e-4b31-8afc-b50d65304033}, !- Space Type Name
  ,                                       !- Default Construction Set Name
  ,                                       !- Default Schedule Set Name
  ,                                       !- Direction of Relative North {deg}
  ,                                       !- X Origin {m}
  ,                                       !- Y Origin {m}
  ,                                       !- Z Origin {m}
  ,                                       !- Building Story Name
  {0befc1e7-443b-4d3e-b36d-0fb1751592c3}, !- Thermal Zone Name
  ,                                       !- Part of Total Floor Area
  ,                                       !- Design Specification Outdoor Air Object Name
  {c0676039-5a05-4dc4-ab58-6a7c9afa0b42}; !- Building Unit Name

OS:SpaceType,
  {d98a30b0-6e5e-4b31-8afc-b50d65304033}, !- Handle
  113,                                    !- Name
  ,                                       !- Default Construction Set Name
  ,                                       !- Default Schedule Set Name
  ,                                       !- Group Rendering Name
  ,                                       !- Design Specification Outdoor Air Object Name
  ,                                       !- Standards Building Type
  garage;                                 !- Standards Space Type

OS:Surface,
  {7945cb45-9fa3-4b60-9bab-da6f4c25e9e8}, !- Handle
   70,                                    !- Name
  Floor,                                  !- Surface Type
  ,                                       !- Construction Name
  {3651bd33-e3e0-45b6-b64b-3f054bd05ef7}, !- Space Name
  Ground,                                 !- Outside Boundary Condition
  ,                                       !- Outside Boundary Condition Object
  NoSun,                                  !- Sun Exposure
  NoWind,                                 !- Wind Exposure
  ,                                       !- View Factor to Ground
  ,                                       !- Number of Vertices
  108, 36, 0,                             !- X,Y,Z Vertex 1 {m}
  98, 36, 0,                              !- X,Y,Z Vertex 2 {m}
  98, 58, 0,                              !- X,Y,Z Vertex 3 {m}
  108, 58, 0;                             !- X,Y,Z Vertex 4 {m}

OS:Surface,
  {41eef313-56fe-4e18-896c-b8bf1a7afed2}, !- Handle
   71,                                    !- Name
  RoofCeiling,                            !- Surface Type
  ,                                       !- Construction Name
  {3651bd33-e3e0-45b6-b64b-3f054bd05ef7}, !- Space Name
  Surface,                                !- Outside Boundary Condition
  {2ceffb05-2ed2-43c6-9f32-9c8b74b0d32c}, !- Outside Boundary Condition Object