!- NOTE: Auto-generated from /test/osw_files/SFD_Multizone_2story_SL_UA_GRG_2Bed_2Bath_Denver_GasWHTank.osw

OS:Version,
  {fc003c06-618b-4051-9b37-6b6f71b12672}, !- Handle
  2.2.0;                                  !- Version Identifier

OS:Building,
  {bf305633-c5a1-4881-9edf-ca5e1a8e1274}, !- Handle
  Building,                               !- Name
  ,                                       !- Building Sector Type
  ,                                       !- North Axis {deg}
  ,                                       !- Nominal Floor to Floor Height {m}
  ,                                       !- Space Type Name
  ,                                       !- Default Construction Set Name
  ,                                       !- Default Schedule Set Name
  ,                                       !- Standards Number of Stories
  2,                                      !- Standards Number of Above Ground Stories
  singlefamilydetached;                   !- Standards Building Type

OS:YearDescription,
  {513d8dda-86cb-442a-b01c-1f7f0e0ac70e}; !- Handle

OS:SimulationControl,
  {2c487a4c-bac9-4ac5-b669-1e49d9da7c2b}, !- Handle
  ,                                       !- Do Zone Sizing Calculation
  ,                                       !- Do System Sizing Calculation
  ,                                       !- Do Plant Sizing Calculation
  No,                                     !- Run Simulation for Sizing Periods
  ;                                       !- Run Simulation for Weather File Run Periods

OS:Timestep,
  {4ebc9f1e-4707-402e-9844-67eb1ffbd522}, !- Handle
  6;                                      !- Number of Timesteps per Hour

OS:RunPeriod,
  {28df894d-6af9-4fb8-8f56-df1753344aa3}, !- Handle
  Run Period,                             !- Name
  1,                                      !- Begin Month
  1,                                      !- Begin Day of Month
  12,                                     !- End Month
  31,                                     !- End Day of Month
  ,                                       !- Use Weather File Holidays and Special Days
  ,                                       !- Use Weather File Daylight Saving Period
  ,                                       !- Apply Weekend Holiday Rule
  ,                                       !- Use Weather File Rain Indicators
  ,                                       !- Use Weather File Snow Indicators
  ;                                       !- Number of Times Runperiod to be Repeated

OS:Sizing:Parameters,
  {dde5af6f-7923-4600-a28a-7556673a0266}, !- Handle
  1.0,                                    !- Heating Sizing Factor
  1.0;                                    !- Cooling Sizing Factor

OS:ShadowCalculation,
  {ca758bea-4416-4626-9bba-3d8795c79bd6}, !- Handle
  20,                                     !- Calculation Frequency
  200;                                    !- Maximum Figures in Shadow Overlap Calculations

OS:SurfaceConvectionAlgorithm:Inside,
  {aaabfc36-718a-4ab0-b622-f186ebb45230}, !- Handle
  TARP;                                   !- Algorithm

OS:SurfaceConvectionAlgorithm:Outside,
  {9a0a9f6f-4bbd-4b12-a121-9492a1fcd7d6}, !- Handle
  DOE-2;                                  !- Algorithm

OS:HeatBalanceAlgorithm,
  {9d93e563-e1e0-46d7-9e39-d1c8aceb7212}, !- Handle
  ConductionTransferFunction,             !- Algorithm
  200;                                    !- Surface Temperature Upper Limit {C}

OS:ZoneCapacitanceMultiplier:ResearchSpecial,
  {6bfced16-b16f-47f6-8223-f7e267d75d19}, !- Handle
  ,                                       !- Temperature Capacity Multiplier
  15,                                     !- Humidity Capacity Multiplier
  ;                                       !- Carbon Dioxide Capacity Multiplier

OS:Space,
  {246ef4aa-5400-4f04-b303-db1e7d333dfe}, !- Handle
  Space 1 - 6,                            !- Name
  {98846795-d370-45e2-9e84-0e12d0c43381}, !- Space Type Name
  ,                                       !- Default Construction Set Name
  ,                                       !- Default Schedule Set Name
  ,                                       !- Direction of Relative North {deg}
  ,                                       !- X Origin {m}
  ,                                       !- Y Origin {m}
  ,                                       !- Z Origin {m}
  ,                                       !- Building Story Name
  {731b7ced-ef8a-4f9c-bf6c-2a8f62b05861}, !- Thermal Zone Name
  ,                                       !- Part of Total Floor Area
  ,                                       !- Design Specification Outdoor Air Object Name
  {9403595e-4760-491c-aa56-27c1d753a60b}; !- Building Unit Name

OS:SpaceType,
  {98846795-d370-45e2-9e84-0e12d0c43381}, !- Handle
  1522,                                   !- Name
  ,                                       !- Default Construction Set Name
  ,                                       !- Default Schedule Set Name
  ,                                       !- Group Rendering Name
  ,                                       !- Design Specification Outdoor Air Object Name
  ,                                       !- Standards Building Type
  laundry room;                           !- Standards Space Type

OS:Surface,
  {9368faa9-c399-420b-bec8-8acdf0a12c6f}, !- Handle
   37,                                    !- Name
  Floor,                                  !- Surface Type
  ,                                       !- Construction Name
  {246ef4aa-5400-4f04-b303-db1e7d333dfe}, !- Space Name
  Ground,                                 !- Outside Boundary Condition
  ,                                       !- Outside Boundary Condition Object
  NoSun,                                  !- Sun Exposure
  NoWind,                                 !- Wind Exposure
  ,                                       !- View Factor to Ground
  ,                                       !- Number of Vertices
  20, 58, 0,                              !- X,Y,Z Vertex 1 {m}
  24, 58, 0,                              !- X,Y,Z Vertex 2 {m}
  24, 36, 0,                              !- X,Y,Z Vertex 3 {m}
  20, 36, 0;                              !- X,Y,Z Vertex 4 {m}

OS:Surface,
  {ed691e8c-c7d2-4c35-a78e-02da77eac134}, !- Handle
   38,                                    !- Name
  RoofCeiling,                            !- Surface Type
  ,                                       !- Construction Name
  {246ef4aa-5400-4f04-b303-db1e7d333dfe}, !- Space Name
  Surface,                                !- Outside Boundary Condition
  {ed9547c8-a90e-4f40-9931-dd727fc25d81}, !- Outside Boundary Condition Object
  NoSun,                                  !- Sun Exposure
  NoWind,                                 !- Wind Exposure
  ,                                       !- View Factor to Ground
  ,                                       !- Number of Vertices
  24, 36, 3,                              !- X,Y,Z Vertex 1 {m}
  24, 58, 3,                              !- X,Y,Z Vertex 2 {m}
  20, 58, 3,                              !- X,Y,Z Vertex 3 {m}
  20, 36, 3;                              !- X,Y,Z Vertex 4 {m}

OS:Surface,
  {429816c3-7767-49f3-81aa-39a0280bcca8}, !- Handle
   39,                                    !- Name
  Wall,                                   !- Surface Type
  ,                                       !- Construction Name
  {246ef4aa-5400-4f04-b303-db1e7d333dfe}, !- Space Name
  Outdoors,                               !- Outside Boundary Condition
  ,                                       !- Outside Boundary Condition Object
  SunExposed,                             !- Sun Exposure
  WindExposed,                            !- Wind Exposure
  ,                                       !- View Factor to Ground
  ,                                       !- Number of Vertices
  24, 58, 3,                              !- X,Y,Z Vertex 1 {m}
  24, 58, 0,                              !- X,Y,Z Vertex 2 {m}
  20, 58, 0,                              !- X,Y,Z Vertex 3 {m}
  20, 58, 3;                              !- X,Y,Z Vertex 4 {m}

OS:Surface,
  {3a478d5a-9039-4c8b-8242-fa5a02f34d29}, !- Handle
   40,                                    !- Name
  Wall,                                   !- Surface Type
  ,                                       !- Construction Name
  {246ef4aa-5400-4f04-b303-db1e7d333dfe}, !- Space Name
  Outdoors,                               !- Outside Boundary Condition
  ,                                       !- Outside Boundary Condition Object
  SunExposed,                             !- Sun Exposure
  WindExposed,                            !- Wind Exposure
  ,                                       !- View Factor to Ground
  ,                                       !- Number of Vertices
  24, 36, 3,                              !- X,Y,Z Vertex 1 {m}
  24, 36, 0,                              !- X,Y,Z Vertex 2 {m}
  24, 58, 0,                              !- X,Y,Z Vertex 3 {m}
  24, 58, 3;                              !- X,Y,Z Vertex 4 {m}

OS:Surface,
  {4010ff3c-d34d-4be4-9d15-5b607d1d822a}, !- Handle
   41,                                    !- Name
  Wall,                                   !- Surface Type
  ,                                       !- Construction Name
  {246ef4aa-5400-4f04-b303-db1e7d333dfe}, !- Space Name
  Outdoors,                               !- Outside Boundary Condition
  ,                                       !- Outside Boundary Condition Object
  SunExposed,                             !- Sun Exposure
  WindExposed,                            !- Wind Exposure
  ,                                       !- View Factor to Ground
  ,                                       !- Number of Vertices
  20, 36, 3,                              !- X,Y,Z Vertex 1 {m}
  20, 36, 0,                              !- X,Y,Z Vertex 2 {m}
  24, 36, 0,                              !- X,Y,Z Vertex 3 {m}
  24, 36, 3;                              !- X,Y,Z Vertex 4 {m}

OS:Surface,
  {53b0b85e-3d7e-4232-925c-e0315b07cbf8}, !- Handle
   42,                                    !- Name
  Wall,                                   !- Surface Type
  ,                                       !- Construction Name
  {246ef4aa-5400-4f04-b303-db1e7d333dfe}, !- Space Name
  Surface,                                !- Outside Boundary Condition
  {ae52813e-5f91-435e-90ee-73f0511a4ae7}, !- Outside Boundary Condition Object
  NoSun,                                  !- Sun Exposure
  NoWind,                                 !- Wind Exposure
  ,                                       !- View Factor to Ground
  ,                                       !- Number of Vertices
  20, 58, 3,                              !- X,Y,Z Vertex 1 {m}
  20, 58, 0,                              !- X,Y,Z Vertex 2 {m}
  20, 36, 0,                              !- X,Y,Z Vertex 3 {m}
  20, 36, 3;                              !- X,Y,Z Vertex 4 {m}

OS:Space,
  {85173fc9-3eea-4506-a4bf-9e620e39bf21}, !- Handle
  Space 2 - 3,                            !- Name
  {c1b08435-b5a7-4fa6-b089-1c8deb815d4c}, !- Space Type Name
  ,                                       !- Default Construction Set Name
  ,                                       !- Default Schedule Set Name
  ,                                       !- Direction of Relative North {deg}
  ,                                       !- X Origin {m}
  ,                                       !- Y Origin {m}
  ,                                       !- Z Origin {m}
  ,                                       !- Building Story Name
  {128709e2-10cb-4f4f-aa13-dcc85cab50e9}, !- Thermal Zone Name
  ,                                       !- Part of Total Floor Area
  ,                                       !- Design Specification Outdoor Air Object Name
  {9403595e-4760-491c-aa56-27c1d753a60b}; !- Building Unit Name

OS:SpaceType,
  {c1b08435-b5a7-4fa6-b089-1c8deb815d4c}, !- Handle
  114,                                    !- Name
  ,                                       !- Default Construction Set Name
  ,                                       !- Default Schedule Set Name
  ,                                       !- Group Rendering Name
  ,                                       !- Design Specification Outdoor Air Object Name
  ,                                       !- Standards Building Type
  bedroom;                                !- Standards Space Type

OS:Surface,
  {b40d2788-d5c1-4442-91df-bedbb92360b4}, !- Handle
   56,                                    !- Name
  Floor,                                  !- Surface Type
  ,                                       !- Construction Name
  {85173fc9-3eea-4506-a4bf-9e620e39bf21}, !- Space Name
  Surface,                                !- Outside Boundary Condition
  {08bfb40b-fa8c-4037-ab72-ffa6de7923f8}, !- Outside Boundary Condition Object
  NoSun,                                  !- Sun Exposure
  NoWind,                                 !- Wind Exposure
  ,                                       !- View Factor to Ground
  ,                                       !- Number of Vertices
  -54, 42, 3,                             !- X,Y,Z Vertex 1 {m}
  -68, 42, 3,                             !- X,Y,Z Vertex 2 {m}
  -68, 58, 3,                             !- X,Y,Z Vertex 3 {m}
  -54, 58, 3;                             !- X,Y,Z Vertex 4 {m}

OS:Surface,
  {3fd105ec-8c33-4e8e-972f-6d7805ab64a1}, !- Handle
   57,                                    !- Name
  RoofCeiling,                            !- Surface Type
  ,                                       !- Construction Name
  {85173fc9-3eea-4506-a4bf-9e620e39bf21}, !- Space Name
  Surface,                                !- Outside Boundary Condition
  {b0d554bd-208e-4713-83f8-8b793350c9dd}, !- Outside Boundary Condition Object
  NoSun,                                  !- Sun Exposure
  NoWind,                                 !- Wind Exposure
  ,                                       !- View Factor to Ground
  ,                                       !- Number of Vertices
  -54, 42, 6,                             !- X,Y,Z Vertex 1 {m}
  -54, 58, 6,                             !- X,Y,Z Vertex 2 {m}
  -68, 58, 6,                             !- X,Y,Z Vertex 3 {m}
  -68, 42, 6;                             !- X,Y,Z Vertex 4 {m}

OS:Surface,
  {97ae72f6-7e50-4724-9750-c596c377d37c}, !- Handle
   58,                                    !- Name
  Wall,                                   !- Surface Type
  ,                                       !- Construction Name
  {85173fc9-3eea-4506-a4bf-9e620e39bf21}, !- Space Name
  Surface,                                !- Outside Boundary Condition
  {555164a4-a288-4a01-8ce5-b2e7b8c474f8}, !- Outside Boundary Condition Object
  NoSun,                                  !- Sun Exposure
  NoWind,                                 !- Wind Exposure
  ,                                       !- View Factor to Ground
  ,                                       !- Number of Vertices
  -68, 42, 6,                             !- X,Y,Z Vertex 1 {m}
  -68, 42, 3,                             !- X,Y,Z Vertex 2 {m}
  -54, 42, 3,                             !- X,Y,Z Vertex 3 {m}
  -54, 42, 6;                             !- X,Y,Z Vertex 4 {m}

OS:Surface,
  {0859ef76-f7f1-493e-b0dd-76754356c8d9}, !- Handle
   59,                                    !- Name
  Wall,                                   !- Surface Type
  ,                                       !- Construction Name
  {85173fc9-3eea-4506-a4bf-9e620e39bf21}, !- Space Name
  Outdoors,                               !- Outside Boundary Condition
  ,                                       !- Outside Boundary Condition Object
  SunExposed,                             !- Sun Exposure
  WindExposed,                            !- Wind Exposure
  ,                                       !- View Factor to Ground
  ,                                       !- Number of Vertices
  -68, 58, 6,                             !- X,Y,Z Vertex 1 {m}
  -68, 58, 3,                             !- X,Y,Z Vertex 2 {m}
  -68, 42, 3,                             !- X,Y,Z Vertex 3 {m}
  -68, 42, 6;                             !- X,Y,Z Vertex 4 {m}

OS:Surface,
  {5734251b-4bb8-4c7d-a44a-0c4f0ad22ebb}, !- Handle
   60,                                    !- Name
  Wall,                                   !- Surface Type
  ,                                       !- Construction Name
  {85173fc9-3eea-4506-a4bf-9e620e39bf21}, !- Space Name
  Outdoors,                               !- Outside Boundary Condition
  ,                                       !- Outside Boundary Condition Object
  SunExposed,                             !- Sun Exposure
  WindExposed,                            !- Wind Exposure
  ,                                       !- View Factor to Ground
  ,                                       !- Number of Vertices
  -54, 58, 6,                             !- X,Y,Z Vertex 1 {m}
  -54, 58, 3,                             !- X,Y,Z Vertex 2 {m}
  -68, 58, 3,                             !- X,Y,Z Vertex 3 {m}
  -68, 58, 6;                             !- X,Y,Z Vertex 4 {m}

OS:Surface,
  {91ae2d00-8cb3-4c9c-babf-b56a8d321419}, !- Handle
   61,                                    !- Name
  Wall,                                   !- Surface Type
  ,                                       !- Construction Name
  {85173fc9-3eea-4506-a4bf-9e620e39bf21}, !- Space Name
  Surface,                                !- Outside Boundary Condition
  {fe41a834-4d9c-4e75-b6d3-42013bacc3b5}, !- Outside Boundary Condition Object
  NoSun,                                  !- Sun Exposure
  NoWind,                                 !- Wind Exposure
  ,                                       !- View Factor to Ground
  ,                                       !- Number of Vertices
  -54, 42, 6,                             !- X,Y,Z Vertex 1 {m}
  -54, 42, 3,                             !- X,Y,Z Vertex 2 {m}
  -54, 58, 3,                             !- X,Y,Z Vertex 3 {m}
  -54, 58, 6;                             !- X,Y,Z Vertex 4 {m}

OS:Space,
  {1e0f941c-b20a-4ed8-ab2b-39a24a76b452}, !- Handle
  Space 1 - 7,                            !- Name
  {2c26b8ec-d077-4a16-b7b0-4bd39134bae8}, !- Space Type Name
  ,                                       !- Default Construction Set Name
  ,                                       !- Default Schedule Set Name
  ,                                       !- Direction of Relative North {deg}
  ,                                       !- X Origin {m}
  ,                                       !- Y Origin {m}
  ,                                       !- Z Origin {m}
  ,                                       !- Building Story Name
  {69fb54c1-81d1-4712-8acc-39c42c09269e}, !- Thermal Zone Name
  ,                                       !- Part of Total Floor Area
  ,                                       !- Design Specification Outdoor Air Object Name
  {9403595e-4760-491c-aa56-27c1d753a60b}; !- Building Unit Name

OS:SpaceType,
  {2c26b8ec-d077-4a16-b7b0-4bd39134bae8}, !- Handle
  116,                                    !- Name
  ,                                       !- Default Construction Set Name
  ,                                       !- Default Schedule Set Name
  ,                                       !- Group Rendering Name
  ,                                       !- Design Specification Outdoor Air Object Name
  ,                                       !- Standards Building Type
  kitchen;                                !- Standards Space Type

OS:Surface,
  {d7c23e3b-3d0c-4312-b5e6-f14feb925e05}, !- Handle
   31,                                    !- Name
  Floor,                                  !- Surface Type
  ,                                       !- Construction Name
  {1e0f941c-b20a-4ed8-ab2b-39a24a76b452}, !- Space Name
  Ground,                                 !- Outside Boundary Condition
  ,                                       !- Outside Boundary Condition Object
  NoSun,                                  !- Sun Exposure
  NoWind,                                 !- Wind Exposure
  ,                                       !- View Factor to Ground
  ,                                       !- Number of Vertices
  6, 36, 0,                               !- X,Y,Z Vertex 1 {m}
  -6, 36, 0,                              !- X,Y,Z Vertex 2 {m}
  -6, 58, 0,                              !- X,Y,Z Vertex 3 {m}
  6, 58, 0;                               !- X,Y,Z Vertex 4 {m}

OS:Surface,
  {2ee281c7-9332-420c-be0d-f2fece074c31}, !- Handle
   32,                                    !- Name
  RoofCeiling,                            !- Surface Type
  ,                                       !- Construction Name
  {1e0f941c-b20a-4ed8-ab2b-39a24a76b452}, !- Space Name
  Surface,                                !- Outside Boundary Condition
  {1043d894-1711-446b-8022-66295fd0d398}, !- Outside Boundary Condition Object
  NoSun,                                  !- Sun Exposure
  NoWind,                                 !- Wind Exposure
  ,                                       !- View Factor to Ground
  ,                                       !- Number of Vertices
  6, 36, 3,                               !- X,Y,Z Vertex 1 {m}
  6, 58, 3,                               !- X,Y,Z Vertex 2 {m}
  -6, 58, 3,                              !- X,Y,Z Vertex 3 {m}
  -6, 36, 3;                              !- X,Y,Z Vertex 4 {m}

OS:Surface,
  {e052a2ad-9ab1-47ea-ae19-233a637298b3}, !- Handle
   33,                                    !- Name
  Wall,                                   !- Surface Type
  ,                                       !- Construction Name
  {1e0f941c-b20a-4ed8-ab2b-39a24a76b452}, !- Space Name
  Outdoors,                               !- Outside Boundary Condition
  ,                                       !- Outside Boundary Condition Object
  SunExposed,                             !- Sun Exposure
  WindExposed,                            !- Wind Exposure
  ,                                       !- View Factor to Ground
  ,                                       !- Number of Vertices
  -6, 36, 3,                              !- X,Y,Z Vertex 1 {m}
  -6, 36, 0,                              !- X,Y,Z Vertex 2 {m}
  6, 36, 0,                               !- X,Y,Z Vertex 3 {m}
  6, 36, 3;                               !- X,Y,Z Vertex 4 {m}

OS:Surface,
  {c3911617-643a-4f67-8d61-740add21dd06}, !- Handle
   34,                                    !- Name
  Wall,                                   !- Surface Type
  ,                                       !- Construction Name
  {1e0f941c-b20a-4ed8-ab2b-39a24a76b452}, !- Space Name
  Surface,                                !- Outside Boundary Condition
  {5e0e7d07-1d45-41c6-a7cb-b90f22858075}, !- Outside Boundary Condition Object
  NoSun,                                  !- Sun Exposure
  NoWind,                                 !- Wind Exposure
  ,                                       !- View Factor to Ground
  ,                                       !- Number of Vertices
  -6, 58, 3,                              !- X,Y,Z Vertex 1 {m}
  -6, 58, 0,                              !- X,Y,Z Vertex 2 {m}
  -6, 36, 0,                              !- X,Y,Z Vertex 3 {m}
  -6, 36, 3;                              !- X,Y,Z Vertex 4 {m}

OS:Surface,
  {30b4f2ec-ac1f-4ec9-afd2-74a8b62cd11d}, !- Handle
   35,                                    !- Name
  Wall,                                   !- Surface Type
  ,                                       !- Construction Name
  {1e0f941c-b20a-4ed8-ab2b-39a24a76b452}, !- Space Name
  Outdoors,                               !- Outside Boundary Condition
  ,                                       !- Outside Boundary Condition Object
  SunExposed,                             !- Sun Exposure
  WindExposed,                            !- Wind Exposure
  ,                                       !- View Factor to Ground
  ,                                       !- Number of Vertices
  6, 58, 3,                               !- X,Y,Z Vertex 1 {m}
  6, 58, 0,                               !- X,Y,Z Vertex 2 {m}
  -6, 58, 0,                              !- X,Y,Z Vertex 3 {m}
  -6, 58, 3;                              !- X,Y,Z Vertex 4 {m}

OS:Surface,
  {fbe100c4-fbfe-44ec-98b0-a033ef5a4923}, !- Handle
   36,                                    !- Name
  Wall,                                   !- Surface Type
  ,                                       !- Construction Name
  {1e0f941c-b20a-4ed8-ab2b-39a24a76b452}, !- Space Name
  Surface,                                !- Outside Boundary Condition
  {7b2bffea-d7a7-4b8c-9b09-e5285930cb47}, !- Outside Boundary Condition Object
  NoSun,                                  !- Sun Exposure
  NoWind,                                 !- Wind Exposure
  ,                                       !- View Factor to Ground
  ,                                       !- Number of Vertices
  6, 36, 3,                               !- X,Y,Z Vertex 1 {m}
  6, 36, 0,                               !- X,Y,Z Vertex 2 {m}
  6, 58, 0,                               !- X,Y,Z Vertex 3 {m}
  6, 58, 3;                               !- X,Y,Z Vertex 4 {m}

OS:Space,
  {e3b6eea1-5946-4f54-a9ed-106492a99059}, !- Handle
  Space 1 - 2,                            !- Name
  {c495abba-569f-424e-982d-5b750f5f8717}, !- Space Type Name
  ,                                       !- Default Construction Set Name
  ,                                       !- Default Schedule Set Name
  ,                                       !- Direction of Relative North {deg}
  ,                                       !- X Origin {m}
  ,                                       !- Y Origin {m}
  ,                                       !- Z Origin {m}
  ,                                       !- Building Story Name
  {a3f327c7-9a58-4c3e-b5cc-901a3780b6cf}, !- Thermal Zone Name
  ,                                       !- Part of Total Floor Area
  ,                                       !- Design Specification Outdoor Air Object Name
  {9403595e-4760-491c-aa56-27c1d753a60b}; !- Building Unit Name

OS:SpaceType,
  {c495abba-569f-424e-982d-5b750f5f8717}, !- Handle
  113,                                    !- Name
  ,                                       !- Default Construction Set Name
  ,                                       !- Default Schedule Set Name
  ,                                       !- Group Rendering Name
  ,                                       !- Design Specification Outdoor Air Object Name
  ,                                       !- Standards Building Type
  garage;                                 !- Standards Space Type

OS:Surface,
  {7b2bffea-d7a7-4b8c-9b09-e5285930cb47}, !- Handle
   11,                                    !- Name
  Wall,                                   !- Surface Type
  ,                                       !- Construction Name
  {e3b6eea1-5946-4f54-a9ed-106492a99059}, !- Space Name
  Surface,                                !- Outside Boundary Condition
  {fbe100c4-fbfe-44ec-98b0-a033ef5a4923}, !- Outside Boundary Condition Object
  NoSun,                                  !- Sun Exposure
  NoWind,                                 !- Wind Exposure
  ,                                       !- View Factor to Ground
  ,                                       !- Number of Vertices
  6, 58, 3,                               !- X,Y,Z Vertex 1 {m}
  6, 58, 0,                               !- X,Y,Z Vertex 2 {m}
  6, 36, 0,                               !- X,Y,Z Vertex 3 {m}
  6, 36, 3;                               !- X,Y,Z Vertex 4 {m}

OS:Surface,
  {eea2b987-1bab-4a59-83d9-0bc1fdca04d7}, !- Handle
   10,                                    !- Name
  Wall,                                   !- Surface Type
  ,                                       !- Construction Name
  {e3b6eea1-5946-4f54-a9ed-106492a99059}, !- Space Name
  Outdoors,                               !- Outside Boundary Condition
  ,                                       !- Outside Boundary Condition Object
  SunExposed,                             !- Sun Exposure
  WindExposed,                            !- Wind Exposure
  ,                                       !- View Factor to Ground
  ,                                       !- Number of Vertices
  6, 36, 3,                               !- X,Y,Z Vertex 1 {m}
  6, 36, 0,                               !- X,Y,Z Vertex 2 {m}
  20, 36, 0,                              !- X,Y,Z Vertex 3 {m}
  20, 36, 3;                              !- X,Y,Z Vertex 4 {m}

OS:Surface,
  {ae52813e-5f91-435e-90ee-73f0511a4ae7}, !- Handle
   9,                                     !- Name
  Wall,                                   !- Surface Type
  ,                                       !- Construction Name
  {e3b6eea1-5946-4f54-a9ed-106492a99059}, !- Space Name
  Surface,                                !- Outside Boundary Condition
  {53b0b85e-3d7e-4232-925c-e0315b07cbf8}, !- Outside Boundary Condition Object
  NoSun,                                  !- Sun Exposure
  NoWind,                                 !- Wind Exposure
  ,                                       !- View Factor to Ground
  ,                                       !- Number of Vertices
  20, 36, 3,                              !- X,Y,Z Vertex 1 {m}
  20, 36, 0,                              !- X,Y,Z Vertex 2 {m}
  20, 58, 0,                              !- X,Y,Z Vertex 3 {m}
  20, 58, 3;                              !- X,Y,Z Vertex 4 {m}

OS:Surface,
  {f3d66d25-ebd1-4f5c-b8f4-493206140d10}, !- Handle
   8,                                     !- Name
  Wall,                                   !- Surface Type
  ,                                       !- Construction Name
  {e3b6eea1-5946-4f54-a9ed-106492a99059}, !- Space Name
  Outdoors,                               !- Outside Boundary Condition