!- NOTE: Auto-generated from /test/osw_files/MF_2units_Multizone_2story_SL_UA_GRG_2Bed_2Bath_1Kitchen_Denver_GasWHTank.osw

OS:Version,
  {fc003c06-618b-4051-9b37-6b6f71b12672}, !- Handle
  2.2.0;                                  !- Version Identifier

OS:Building,
  {bf305633-c5a1-4881-9edf-ca5e1a8e1274}, !- Handle
  Building,                               !- Name
  ,                                       !- Building Sector Type
  ,                                       !- North Axis {deg}
  ,                                       !- Nominal Floor to Floor Height {m}
  ,                                       !- Space Type Name
  ,                                       !- Default Construction Set Name
  ,                                       !- Default Schedule Set Name
  ,                                       !- Standards Number of Stories
  2,                                      !- Standards Number of Above Ground Stories
  singlefamilyttached;                    !- Standards Building Type

OS:YearDescription,
  {513d8dda-86cb-442a-b01c-1f7f0e0ac70e}; !- Handle

OS:SimulationControl,
  {2c487a4c-bac9-4ac5-b669-1e49d9da7c2b}, !- Handle
  ,                                       !- Do Zone Sizing Calculation
  ,                                       !- Do System Sizing Calculation
  ,                                       !- Do Plant Sizing Calculation
  No,                                     !- Run Simulation for Sizing Periods
  ;                                       !- Run Simulation for Weather File Run Periods

OS:Timestep,
  {4ebc9f1e-4707-402e-9844-67eb1ffbd522}, !- Handle
  6;                                      !- Number of Timesteps per Hour

OS:RunPeriod,
  {28df894d-6af9-4fb8-8f56-df1753344aa3}, !- Handle
  Run Period,                             !- Name
  1,                                      !- Begin Month
  1,                                      !- Begin Day of Month
  12,                                     !- End Month
  31,                                     !- End Day of Month
  ,                                       !- Use Weather File Holidays and Special Days
  ,                                       !- Use Weather File Daylight Saving Period
  ,                                       !- Apply Weekend Holiday Rule
  ,                                       !- Use Weather File Rain Indicators
  ,                                       !- Use Weather File Snow Indicators
  ;                                       !- Number of Times Runperiod to be Repeated

OS:Sizing:Parameters,
  {dde5af6f-7923-4600-a28a-7556673a0266}, !- Handle
  1.0,                                    !- Heating Sizing Factor
  1.0;                                    !- Cooling Sizing Factor

OS:ShadowCalculation,
  {ca758bea-4416-4626-9bba-3d8795c79bd6}, !- Handle
  20,                                     !- Calculation Frequency
  200;                                    !- Maximum Figures in Shadow Overlap Calculations

OS:SurfaceConvectionAlgorithm:Inside,
  {aaabfc36-718a-4ab0-b622-f186ebb45230}, !- Handle
  TARP;                                   !- Algorithm

OS:SurfaceConvectionAlgorithm:Outside,
  {9a0a9f6f-4bbd-4b12-a121-9492a1fcd7d6}, !- Handle
  DOE-2;                                  !- Algorithm

OS:HeatBalanceAlgorithm,
  {9d93e563-e1e0-46d7-9e39-d1c8aceb7212}, !- Handle
  ConductionTransferFunction,             !- Algorithm
  200;                                    !- Surface Temperature Upper Limit {C}

OS:ZoneCapacitanceMultiplier:ResearchSpecial,
  {6bfced16-b16f-47f6-8223-f7e267d75d19}, !- Handle
  ,                                       !- Temperature Capacity Multiplier
  15,                                     !- Humidity Capacity Multiplier
  ;                                       !- Carbon Dioxide Capacity Multiplier

OS:Space,
  {ef502f5a-2098-4d2e-935a-e6f84e14a655}, !- Handle
  Space 2 - 3,                            !- Name
  {9464e2bd-a45c-4199-bcda-da70c62dcfb5}, !- Space Type Name
  ,                                       !- Default Construction Set Name
  ,                                       !- Default Schedule Set Name
  ,                                       !- Direction of Relative North {deg}
  ,                                       !- X Origin {m}
  ,                                       !- Y Origin {m}
  ,                                       !- Z Origin {m}
  ,                                       !- Building Story Name
  {79045124-f0de-44e7-b4db-576d0ad996c4}, !- Thermal Zone Name
  ,                                       !- Part of Total Floor Area
  ,                                       !- Design Specification Outdoor Air Object Name
  {41019d91-b439-4d50-896e-d7adee6f7892}; !- Building Unit Name

OS:SpaceType,
  {9464e2bd-a45c-4199-bcda-da70c62dcfb5}, !- Handle
  114,                                    !- Name
  ,                                       !- Default Construction Set Name
  ,                                       !- Default Schedule Set Name
  ,                                       !- Group Rendering Name
  ,                                       !- Design Specification Outdoor Air Object Name
  ,                                       !- Standards Building Type
  bedroom;                                !- Standards Space Type

OS:Surface,
  {6ecc0c0a-f5f3-4d69-80eb-a657ddd02aca}, !- Handle
   94,                                    !- Name
  Floor,                                  !- Surface Type
  ,                                       !- Construction Name
  {ef502f5a-2098-4d2e-935a-e6f84e14a655}, !- Space Name
  Surface,                                !- Outside Boundary Condition
  {c92e09d0-67b1-4021-9857-5232e97d31d1}, !- Outside Boundary Condition Object
  NoSun,                                  !- Sun Exposure
  NoWind,                                 !- Wind Exposure
  ,                                       !- View Factor to Ground
  ,                                       !- Number of Vertices
  -54, 42, 3,                             !- X,Y,Z Vertex 1 {m}
  -68, 42, 3,                             !- X,Y,Z Vertex 2 {m}
  -68, 58, 3,                             !- X,Y,Z Vertex 3 {m}
  -54, 58, 3;                             !- X,Y,Z Vertex 4 {m}

OS:Surface,
  {35bfb848-5706-4f4a-bbdb-bc7ee0e365c9}, !- Handle
   95,                                    !- Name
  RoofCeiling,                            !- Surface Type
  ,                                       !- Construction Name
  {ef502f5a-2098-4d2e-935a-e6f84e14a655}, !- Space Name
  Surface,                                !- Outside Boundary Condition
  {a3611c8a-c66f-46a4-a492-8d49a41a2dfc}, !- Outside Boundary Condition Object
  NoSun,                                  !- Sun Exposure
  NoWind,                                 !- Wind Exposure
  ,                                       !- View Factor to Ground
  ,                                       !- Number of Vertices
  -54, 58, 6,                             !- X,Y,Z Vertex 1 {m}
  -68, 58, 6,                             !- X,Y,Z Vertex 2 {m}
  -68, 42, 6,                             !- X,Y,Z Vertex 3 {m}
  -54, 42, 6;                             !- X,Y,Z Vertex 4 {m}

OS:Surface,
  {9bb8b371-9f6f-45d6-a4d2-3bbf8cb00cea}, !- Handle
   96,                                    !- Name
  Wall,                                   !- Surface Type
  ,                                       !- Construction Name
  {ef502f5a-2098-4d2e-935a-e6f84e14a655}, !- Space Name
  Surface,                                !- Outside Boundary Condition
  {a82d8eb0-b5ff-4d48-9d3f-f4ffebfc7839}, !- Outside Boundary Condition Object
  NoSun,                                  !- Sun Exposure
  NoWind,                                 !- Wind Exposure
  ,                                       !- View Factor to Ground
  ,                                       !- Number of Vertices
  -68, 42, 6,                             !- X,Y,Z Vertex 1 {m}
  -68, 42, 3,                             !- X,Y,Z Vertex 2 {m}
  -54, 42, 3,                             !- X,Y,Z Vertex 3 {m}
  -54, 42, 6;                             !- X,Y,Z Vertex 4 {m}

OS:Surface,
  {a7f13a49-0537-4cc7-bff5-9ae775e178a1}, !- Handle
   97,                                    !- Name
  Wall,                                   !- Surface Type
  ,                                       !- Construction Name
  {ef502f5a-2098-4d2e-935a-e6f84e14a655}, !- Space Name
  Outdoors,                               !- Outside Boundary Condition
  ,                                       !- Outside Boundary Condition Object
  SunExposed,                             !- Sun Exposure
  WindExposed,                            !- Wind Exposure
  ,                                       !- View Factor to Ground
  ,                                       !- Number of Vertices
  -68, 58, 6,                             !- X,Y,Z Vertex 1 {m}
  -68, 58, 3,                             !- X,Y,Z Vertex 2 {m}
  -68, 42, 3,                             !- X,Y,Z Vertex 3 {m}
  -68, 42, 6;                             !- X,Y,Z Vertex 4 {m}

OS:Surface,
  {4cc79733-fada-416e-900a-0a3db043d36f}, !- Handle
   98,                                    !- Name
  Wall,                                   !- Surface Type
  ,                                       !- Construction Name
  {ef502f5a-2098-4d2e-935a-e6f84e14a655}, !- Space Name
  Outdoors,                               !- Outside Boundary Condition
  ,                                       !- Outside Boundary Condition Object
  SunExposed,                             !- Sun Exposure
  WindExposed,                            !- Wind Exposure
  ,                                       !- View Factor to Ground
  ,                                       !- Number of Vertices
  -54, 58, 6,                             !- X,Y,Z Vertex 1 {m}
  -54, 58, 3,                             !- X,Y,Z Vertex 2 {m}
  -68, 58, 3,                             !- X,Y,Z Vertex 3 {m}
  -68, 58, 6;                             !- X,Y,Z Vertex 4 {m}

OS:Surface,
  {e22f4bda-95ba-4baa-92db-d1c4c11f4516}, !- Handle
   99,                                    !- Name
  Wall,                                   !- Surface Type
  ,                                       !- Construction Name
  {ef502f5a-2098-4d2e-935a-e6f84e14a655}, !- Space Name
  Surface,                                !- Outside Boundary Condition
  {093abd35-a94c-4c15-831d-839749160059}, !- Outside Boundary Condition Object
  NoSun,                                  !- Sun Exposure
  NoWind,                                 !- Wind Exposure
  ,                                       !- View Factor to Ground
  ,                                       !- Number of Vertices
  -54, 42, 6,                             !- X,Y,Z Vertex 1 {m}
  -54, 42, 3,                             !- X,Y,Z Vertex 2 {m}
  -54, 58, 3,                             !- X,Y,Z Vertex 3 {m}
  -54, 58, 6;                             !- X,Y,Z Vertex 4 {m}

OS:Space,
  {e30f25ef-8d36-4845-9bcd-360f485ed382}, !- Handle
  Space 1 - 1,                            !- Name
  {578a91c0-86db-453b-8db0-7899af46b8d5}, !- Space Type Name
  ,                                       !- Default Construction Set Name
  ,                                       !- Default Schedule Set Name
  ,                                       !- Direction of Relative North {deg}
  ,                                       !- X Origin {m}
  ,                                       !- Y Origin {m}
  ,                                       !- Z Origin {m}
  ,                                       !- Building Story Name
  {8c46072c-8969-443d-acbc-cf7aa44ce5cc}, !- Thermal Zone Name
  ,                                       !- Part of Total Floor Area
  ,                                       !- Design Specification Outdoor Air Object Name
  {41019d91-b439-4d50-896e-d7adee6f7892}; !- Building Unit Name

OS:SpaceType,
  {578a91c0-86db-453b-8db0-7899af46b8d5}, !- Handle
  112,                                    !- Name
  ,                                       !- Default Construction Set Name
  ,                                       !- Default Schedule Set Name
  ,                                       !- Group Rendering Name
  ,                                       !- Design Specification Outdoor Air Object Name
  ,                                       !- Standards Building Type
  living;                                 !- Standards Space Type

OS:Surface,
  {7b1f6cbc-02a5-4edd-a18f-ca21bbe8ccd7}, !- Handle
   1,                                     !- Name
  RoofCeiling,                            !- Surface Type
  ,                                       !- Construction Name
  {e30f25ef-8d36-4845-9bcd-360f485ed382}, !- Space Name
  Surface,                                !- Outside Boundary Condition
  {abb4fc1f-2ba6-4391-96c5-9eb578e0adf8}, !- Outside Boundary Condition Object
  NoSun,                                  !- Sun Exposure
  NoWind,                                 !- Wind Exposure
  ,                                       !- View Factor to Ground
  ,                                       !- Number of Vertices
  -6, 58, 3,                              !- X,Y,Z Vertex 1 {m}
  -50, 58, 3,                             !- X,Y,Z Vertex 2 {m}
  -50, 36, 3,                             !- X,Y,Z Vertex 3 {m}
  -6, 36, 3;                              !- X,Y,Z Vertex 4 {m}

OS:Surface,
  {c429df86-ab06-4d40-a63b-c60da4c11b4b}, !- Handle
  ,                                       !- Name
  Floor,                                  !- Surface Type
  ,                                       !- Construction Name
  {e30f25ef-8d36-4845-9bcd-360f485ed382}, !- Space Name
  Ground,                                 !- Outside Boundary Condition
  ,                                       !- Outside Boundary Condition Object
  NoSun,                                  !- Sun Exposure
  NoWind,                                 !- Wind Exposure
  ,                                       !- View Factor to Ground
  ,                                       !- Number of Vertices
  -6, 36, 0,                              !- X,Y,Z Vertex 1 {m}
  -50, 36, 0,                             !- X,Y,Z Vertex 2 {m}
  -50, 58, 0,                             !- X,Y,Z Vertex 3 {m}
  -6, 58, 0;                              !- X,Y,Z Vertex 4 {m}

OS:Surface,
  {ce3ff164-94dd-4e2b-8619-08329514818c}, !- Handle
   5,                                     !- Name
  Wall,                                   !- Surface Type
  ,                                       !- Construction Name
  {e30f25ef-8d36-4845-9bcd-360f485ed382}, !- Space Name
  Surface,                                !- Outside Boundary Condition
  {673e0106-7e85-4850-9175-a8a412c3240f}, !- Outside Boundary Condition Object
  NoSun,                                  !- Sun Exposure
  NoWind,                                 !- Wind Exposure
  ,                                       !- View Factor to Ground
  ,                                       !- Number of Vertices
  -6, 36, 3,                              !- X,Y,Z Vertex 1 {m}
  -6, 36, 0,                              !- X,Y,Z Vertex 2 {m}
  -6, 58, 0,                              !- X,Y,Z Vertex 3 {m}
  -6, 58, 3;                              !- X,Y,Z Vertex 4 {m}

OS:Surface,
  {5bb820f2-6825-489d-9507-ea5830a36d9f}, !- Handle
   4,                                     !- Name
  Wall,                                   !- Surface Type
  ,                                       !- Construction Name
  {e30f25ef-8d36-4845-9bcd-360f485ed382}, !- Space Name
  Outdoors,                               !- Outside Boundary Condition
  ,                                       !- Outside Boundary Condition Object
  SunExposed,                             !- Sun Exposure
  WindExposed,                            !- Wind Exposure
  ,                                       !- View Factor to Ground
  ,                                       !- Number of Vertices
  -6, 58, 3,                              !- X,Y,Z Vertex 1 {m}
  -6, 58, 0,                              !- X,Y,Z Vertex 2 {m}
  -50, 58, 0,                             !- X,Y,Z Vertex 3 {m}
  -50, 58, 3;                             !- X,Y,Z Vertex 4 {m}

OS:Surface,
  {c1946792-556f-4fe6-be0c-15978f036a79}, !- Handle
   3,                                     !- Name
  Wall,                                   !- Surface Type
  ,                                       !- Construction Name
  {e30f25ef-8d36-4845-9bcd-360f485ed382}, !- Space Name
  Surface,                                !- Outside Boundary Condition
  {504851bb-cb9a-4179-8059-0e4253fffb28}, !- Outside Boundary Condition Object
  NoSun,                                  !- Sun Exposure
  NoWind,                                 !- Wind Exposure
  ,                                       !- View Factor to Ground
  ,                                       !- Number of Vertices
  -50, 58, 3,                             !- X,Y,Z Vertex 1 {m}
  -50, 58, 0,                             !- X,Y,Z Vertex 2 {m}
  -50, 36, 0,                             !- X,Y,Z Vertex 3 {m}
  -50, 36, 3;                             !- X,Y,Z Vertex 4 {m}

OS:Surface,
  {20b21e2f-d466-49a7-a3e4-12344ac516d4}, !- Handle
   2,                                     !- Name
  Wall,                                   !- Surface Type
  ,                                       !- Construction Name
  {e30f25ef-8d36-4845-9bcd-360f485ed382}, !- Space Name
  Outdoors,                               !- Outside Boundary Condition
  ,                                       !- Outside Boundary Condition Object
  SunExposed,                             !- Sun Exposure
  WindExposed,                            !- Wind Exposure
  ,                                       !- View Factor to Ground
  ,                                       !- Number of Vertices
  -50, 36, 3,                             !- X,Y,Z Vertex 1 {m}
  -50, 36, 0,                             !- X,Y,Z Vertex 2 {m}
  -6, 36, 0,                              !- X,Y,Z Vertex 3 {m}
  -6, 36, 3;                              !- X,Y,Z Vertex 4 {m}

OS:Space,
  {fa651835-e2b2-4127-8fab-df21faeaba43}, !- Handle
  Space 3 - 2,                            !- Name
  {4565175f-6d3c-4622-a78d-cdcaa007f840}, !- Space Type Name
  ,                                       !- Default Construction Set Name
  ,                                       !- Default Schedule Set Name
  ,                                       !- Direction of Relative North {deg}
  ,                                       !- X Origin {m}
  ,                                       !- Y Origin {m}
  ,                                       !- Z Origin {m}
  ,                                       !- Building Story Name
  {4ecc54c7-ff1a-4233-ab3f-25ad91b77a77}, !- Thermal Zone Name
  ,                                       !- Part of Total Floor Area
  ,                                       !- Design Specification Outdoor Air Object Name
  {5956f0d1-3aa4-4cb0-b14e-2ebefc71ebf3}; !- Building Unit Name

OS:SpaceType,
  {4565175f-6d3c-4622-a78d-cdcaa007f840}, !- Handle
  117,                                    !- Name
  ,                                       !- Default Construction Set Name
  ,                                       !- Default Schedule Set Name
  ,                                       !- Group Rendering Name
  ,                                       !- Design Specification Outdoor Air Object Name
  ,                                       !- Standards Building Type
  attic;                                  !- Standards Space Type

OS:Surface,
  {53c73849-0833-4dfc-af2f-63c43ffc8df3}, !- Handle
   132,                                   !- Name
  Floor,                                  !- Surface Type
  ,                                       !- Construction Name
  {fa651835-e2b2-4127-8fab-df21faeaba43}, !- Space Name
  Surface,                                !- Outside Boundary Condition
  {b7d47708-2346-4140-85d4-d0119deb9dbf}, !- Outside Boundary Condition Object
  NoSun,                                  !- Sun Exposure
  NoWind,                                 !- Wind Exposure
  ,                                       !- View Factor to Ground
  ,                                       !- Number of Vertices
  34, 58, 6,                              !- X,Y,Z Vertex 1 {m}
  34, 36, 6,                              !- X,Y,Z Vertex 2 {m}
  20, 36, 6,                              !- X,Y,Z Vertex 3 {m}
  20, 58, 6;                              !- X,Y,Z Vertex 4 {m}

OS:Surface,
  {45c7fcc0-f031-497f-a798-33b663de4d17}, !- Handle
   133,                                   !- Name
  RoofCeiling,                            !- Surface Type
  ,                                       !- Construction Name
  {fa651835-e2b2-4127-8fab-df21faeaba43}, !- Space Name
  Outdoors,                               !- Outside Boundary Condition
  ,                                       !- Outside Boundary Condition Object
  SunExposed,                             !- Sun Exposure
  WindExposed,                            !- Wind Exposure
  ,                                       !- View Factor to Ground
  ,                                       !- Number of Vertices
  20, 58, 9,                              !- X,Y,Z Vertex 1 {m}
  20, 36, 9,                              !- X,Y,Z Vertex 2 {m}
  112, 36, 9,                             !- X,Y,Z Vertex 3 {m}
  112, 58.08936521245, 9,                 !- X,Y,Z Vertex 4 {m}
  20, 58.08936521245, 9;                  !- X,Y,Z Vertex 5 {m}

OS:Surface,
  {26e085fc-6f49-4308-a976-84359c2bd942}, !- Handle
   134,                                   !- Name
  Wall,                                   !- Surface Type
  ,                                       !- Construction Name
  {fa651835-e2b2-4127-8fab-df21faeaba43}, !- Space Name
  Outdoors,                               !- Outside Boundary Condition
  ,                                       !- Outside Boundary Condition Object
  SunExposed,                             !- Sun Exposure
  WindExposed,                            !- Wind Exposure
  ,                                       !- View Factor to Ground
  ,                                       !- Number of Vertices
  112, 58.08936521245, 9,                 !- X,Y,Z Vertex 1 {m}
  112, 58.08936521245, 6,                 !- X,Y,Z Vertex 2 {m}
  20, 58.08936521245, 6,                  !- X,Y,Z Vertex 3 {m}
  20, 58.08936521245, 9;                  !- X,Y,Z Vertex 4 {m}

OS:Surface,
  {0a4e3370-4906-4637-a98f-cbce35ddd303}, !- Handle
   135,                                   !- Name
  Wall,                                   !- Surface Type
  ,                                       !- Construction Name
  {fa651835-e2b2-4127-8fab-df21faeaba43}, !- Space Name
  Outdoors,                               !- Outside Boundary Condition
  ,                                       !- Outside Boundary Condition Object
  SunExposed,                             !- Sun Exposure
  WindExposed,                            !- Wind Exposure
  ,                                       !- View Factor to Ground
  ,                                       !- Number of Vertices
  112, 36, 9,                             !- X,Y,Z Vertex 1 {m}
  112, 36, 6,                             !- X,Y,Z Vertex 2 {m}
  112, 58.08936521245, 6,                 !- X,Y,Z Vertex 3 {m}
  112, 58.08936521245, 9;                 !- X,Y,Z Vertex 4 {m}

OS:Surface,
  {764706c5-8380-4751-a9bd-59f39f268cf1}, !- Handle
   136,                                   !- Name
  Wall,                                   !- Surface Type
  ,                                       !- Construction Name
  {fa651835-e2b2-4127-8fab-df21faeaba43}, !- Space Name
  Outdoors,                               !- Outside Boundary Condition
  ,                                       !- Outside Boundary Condition Object
  SunExposed,                             !- Sun Exposure
  WindExposed,                            !- Wind Exposure
  ,                                       !- View Factor to Ground
  ,                                       !- Number of Vertices
  20, 36, 9,                              !- X,Y,Z Vertex 1 {m}
  20, 36, 6,                              !- X,Y,Z Vertex 2 {m}
  112, 36, 6,                             !- X,Y,Z Vertex 3 {m}
  112, 36, 9;                             !- X,Y,Z Vertex 4 {m}

OS:Surface,
  {de4b2634-2c2e-4808-846c-7ca6f80a495f}, !- Handle
   137,                                   !- Name
  Wall,                                   !- Surface Type
  ,                                       !- Construction Name
  {fa651835-e2b2-4127-8fab-df21faeaba43}, !- Space Name
  Surface,                                !- Outside Boundary Condition
  {994437b4-718a-4914-90fd-cd9539affdb6}, !- Outside Boundary Condition Object
  NoSun,                                  !- Sun Exposure
  NoWind,                                 !- Wind Exposure
  ,                                       !- View Factor to Ground
  ,                                       !- Number of Vertices
  20, 58, 9,                              !- X,Y,Z Vertex 1 {m}
  20, 58, 6,                              !- X,Y,Z Vertex 2 {m}
  20, 36, 6,                              !- X,Y,Z Vertex 3 {m}
  20, 36, 9;                              !- X,Y,Z Vertex 4 {m}

OS:Surface,
  {76699b2f-51c1-45a5-98e0-52c4d03b85d9}, !- Handle
   138,                                   !- Name
  Wall,                                   !- Surface Type
  ,                                       !- Construction Name
  {fa651835-e2b2-4127-8fab-df21faeaba43}, !- Space Name
  Outdoors,                               !- Outside Boundary Condition
  ,                                       !- Outside Boundary Condition Object
  SunExposed,                             !- Sun Exposure
  WindExposed,                            !- Wind Exposure
  ,                                       !- View Factor to Ground
  ,                                       !- Number of Vertices
  20, 58.08936521245, 9,                  !- X,Y,Z Vertex 1 {m}
  20, 58.08936521245, 6,                  !- X,Y,Z Vertex 2 {m}
  20, 58, 6,                              !- X,Y,Z Vertex 3 {m}
  20, 58, 9;                              !- X,Y,Z Vertex 4 {m}

OS:Space,
  {dab9c6cb-0531-416b-9e7c-fd0adedbebab}, !- Handle
  Space 1 - 5,                            !- Name
  {52178692-d4ed-4ff9-98fa-f34364f52848}, !- Space Type Name
  ,                                       !- Default Construction Set Name
  ,                                       !- Default Schedule Set Name
  ,                                       !- Direction of Relative North {deg}
  ,                                       !- X Origin {m}
  ,                                       !- Y Origin {m}
  ,                                       !- Z Origin {m}
  ,                                       !- Building Story Name
  {0167b8ab-099e-4745-88ea-7a650a8ad95c}, !- Thermal Zone Name
  ,                                       !- Part of Total Floor Area
  ,                                       !- Design Specification Outdoor Air Object Name
  {41019d91-b439-4d50-896e-d7adee6f7892}; !- Building Unit Name

OS:SpaceType,
  {52178692-d4ed-4ff9-98fa-f34364f52848}, !- Handle
  115,                                    !- Name
  ,                                       !- Default Construction Set Name
  ,                                       !- Default Schedule Set Name
  ,                                       !- Group Rendering Name
  ,                                       !- Design Specification Outdoor Air Object Name
  ,                                       !- Standards Building Type
  bathroom;                               !- Standards Space Type

OS:Surface,
  {f172e80d-0c3f-4ef8-86c5-9a43b8bbf2d3}, !- Handle
   26,                                    !- Name
  Floor,                                  !- Surface Type
  ,                                       !- Construction Name
  {dab9c6cb-0531-416b-9e7c-fd0adedbebab}, !- Space Name
  Ground,                                 !- Outside Boundary Condition
  ,                                       !- Outside Boundary Condition Object
  NoSun,                                  !- Sun Exposure
  NoWind,                                 !- Wind Exposure
  ,                                       !- View Factor to Ground
  ,                                       !- Number of Vertices
  -54, 36, 0,                             !- X,Y,Z Vertex 1 {m}
  -68, 36, 0,                             !- X,Y,Z Vertex 2 {m}
  -68, 42, 0,                             !- X,Y,Z Vertex 3 {m}
  -54, 42, 0;                             !- X,Y,Z Vertex 4 {m}

OS:Surface,
  {ebe9b2d6-6808-4bb4-ad7f-330b3ba1b24b}, !- Handle
   27,                                    !- Name
  RoofCeiling,                            !- Surface Type
  ,                                       !- Construction Name
  {dab9c6cb-0531-416b-9e7c-fd0adedbebab}, !- Space Name
  Surface,                                !- Outside Boundary Condition
  {c4f2d891-368d-4ecf-b287-29364ffafa80}, !- Outside Boundary Condition Object
  NoSun,                                  !- Sun Exposure
  NoWind,                                 !- Wind Exposure
  ,                                       !- View Factor to Ground
  ,                                       !- Number of Vertices
  -54, 42, 3,                             !- X,Y,Z Vertex 1 {m}
  -68, 42, 3,                             !- X,Y,Z Vertex 2 {m}
  -68, 36, 3,                             !- X,Y,Z Vertex 3 {m}
  -54, 36, 3;                             !- X,Y,Z Vertex 4 {m}

OS:Surface,
  {cacc24d4-145d-4bac-8164-1c1116327739}, !- Handle
   28,                                    !- Name
  Wall,                                   !- Surface Type
  ,                                       !- Construction Name
  {dab9c6cb-0531-416b-9e7c-fd0adedbebab}, !- Space Name