!- NOTE: Auto-generated from /test/osw_files/MF_2units_Multizone_2story_SL_UA_GRG_2Bed_2Bath_Denver_GasWHTank.osw

OS:Version,
  {fc003c06-618b-4051-9b37-6b6f71b12672}, !- Handle
  2.2.0;                                  !- Version Identifier

OS:Building,
  {bf305633-c5a1-4881-9edf-ca5e1a8e1274}, !- Handle
  Building,                               !- Name
  ,                                       !- Building Sector Type
  ,                                       !- North Axis {deg}
  ,                                       !- Nominal Floor to Floor Height {m}
  ,                                       !- Space Type Name
  ,                                       !- Default Construction Set Name
  ,                                       !- Default Schedule Set Name
  ,                                       !- Standards Number of Stories
  2,                                      !- Standards Number of Above Ground Stories
  singlefamilyttached;                    !- Standards Building Type

OS:YearDescription,
  {513d8dda-86cb-442a-b01c-1f7f0e0ac70e}; !- Handle

OS:SimulationControl,
  {2c487a4c-bac9-4ac5-b669-1e49d9da7c2b}, !- Handle
  ,                                       !- Do Zone Sizing Calculation
  ,                                       !- Do System Sizing Calculation
  ,                                       !- Do Plant Sizing Calculation
  No,                                     !- Run Simulation for Sizing Periods
  ;                                       !- Run Simulation for Weather File Run Periods

OS:Timestep,
  {4ebc9f1e-4707-402e-9844-67eb1ffbd522}, !- Handle
  6;                                      !- Number of Timesteps per Hour

OS:RunPeriod,
  {28df894d-6af9-4fb8-8f56-df1753344aa3}, !- Handle
  Run Period,                             !- Name
  1,                                      !- Begin Month
  1,                                      !- Begin Day of Month
  12,                                     !- End Month
  31,                                     !- End Day of Month
  ,                                       !- Use Weather File Holidays and Special Days
  ,                                       !- Use Weather File Daylight Saving Period
  ,                                       !- Apply Weekend Holiday Rule
  ,                                       !- Use Weather File Rain Indicators
  ,                                       !- Use Weather File Snow Indicators
  ;                                       !- Number of Times Runperiod to be Repeated

OS:Sizing:Parameters,
  {dde5af6f-7923-4600-a28a-7556673a0266}, !- Handle
  1.0,                                    !- Heating Sizing Factor
  1.0;                                    !- Cooling Sizing Factor

OS:ShadowCalculation,
  {ca758bea-4416-4626-9bba-3d8795c79bd6}, !- Handle
  20,                                     !- Calculation Frequency
  200;                                    !- Maximum Figures in Shadow Overlap Calculations

OS:SurfaceConvectionAlgorithm:Inside,
  {aaabfc36-718a-4ab0-b622-f186ebb45230}, !- Handle
  TARP;                                   !- Algorithm

OS:SurfaceConvectionAlgorithm:Outside,
  {9a0a9f6f-4bbd-4b12-a121-9492a1fcd7d6}, !- Handle
  DOE-2;                                  !- Algorithm

OS:HeatBalanceAlgorithm,
  {9d93e563-e1e0-46d7-9e39-d1c8aceb7212}, !- Handle
  ConductionTransferFunction,             !- Algorithm
  200;                                    !- Surface Temperature Upper Limit {C}

OS:ZoneCapacitanceMultiplier:ResearchSpecial,
  {6bfced16-b16f-47f6-8223-f7e267d75d19}, !- Handle
  ,                                       !- Temperature Capacity Multiplier
  15,                                     !- Humidity Capacity Multiplier
  ;                                       !- Carbon Dioxide Capacity Multiplier

OS:Space,
  {8ca218f8-4d6c-4a4b-b584-4303f5bc9c3e}, !- Handle
  Space 1 - 3,                            !- Name
  {3cc227a1-ce52-4fe3-931e-a5b7ce3bb681}, !- Space Type Name
  ,                                       !- Default Construction Set Name
  ,                                       !- Default Schedule Set Name
  ,                                       !- Direction of Relative North {deg}
  ,                                       !- X Origin {m}
  ,                                       !- Y Origin {m}
  ,                                       !- Z Origin {m}
  ,                                       !- Building Story Name
  {4aef8f5e-6a25-4cb8-9cf1-ce387753b798}, !- Thermal Zone Name
  ,                                       !- Part of Total Floor Area
  ,                                       !- Design Specification Outdoor Air Object Name
  {67518280-458a-41b9-99da-e30172664d7f}; !- Building Unit Name

OS:SpaceType,
  {3cc227a1-ce52-4fe3-931e-a5b7ce3bb681}, !- Handle
  112,                                    !- Name
  ,                                       !- Default Construction Set Name
  ,                                       !- Default Schedule Set Name
  ,                                       !- Group Rendering Name
  ,                                       !- Design Specification Outdoor Air Object Name
  ,                                       !- Standards Building Type
  living;                                 !- Standards Space Type

OS:Surface,
  {eb685ea6-8ecc-4ea1-acf0-0fc322dd1785}, !- Handle
   12,                                    !- Name
  Floor,                                  !- Surface Type
  ,                                       !- Construction Name
  {8ca218f8-4d6c-4a4b-b584-4303f5bc9c3e}, !- Space Name
  Ground,                                 !- Outside Boundary Condition
  ,                                       !- Outside Boundary Condition Object
  NoSun,                                  !- Sun Exposure
  NoWind,                                 !- Wind Exposure
  ,                                       !- View Factor to Ground
  ,                                       !- Number of Vertices
  -50, 36, 0,                             !- X,Y,Z Vertex 1 {m}
  -54, 36, 0,                             !- X,Y,Z Vertex 2 {m}
  -54, 42, 0,                             !- X,Y,Z Vertex 3 {m}
  -54, 58, 0,                             !- X,Y,Z Vertex 4 {m}
  -50, 58, 0;                             !- X,Y,Z Vertex 5 {m}

OS:Surface,
  {942b6e67-c4ca-4d18-a1f8-56c9c1a5def2}, !- Handle
   18,                                    !- Name
  Wall,                                   !- Surface Type
  ,                                       !- Construction Name
  {8ca218f8-4d6c-4a4b-b584-4303f5bc9c3e}, !- Space Name
  Surface,                                !- Outside Boundary Condition
  {65948a34-e1b5-453e-af85-f312097d349d}, !- Outside Boundary Condition Object
  NoSun,                                  !- Sun Exposure
  NoWind,                                 !- Wind Exposure
  ,                                       !- View Factor to Ground
  ,                                       !- Number of Vertices
  -50, 36, 3,                             !- X,Y,Z Vertex 1 {m}
  -50, 36, 0,                             !- X,Y,Z Vertex 2 {m}
  -50, 58, 0,                             !- X,Y,Z Vertex 3 {m}
  -50, 58, 3;                             !- X,Y,Z Vertex 4 {m}

OS:Surface,
  {d57cbd88-3221-4655-87b8-c79c0a8b642f}, !- Handle
   17,                                    !- Name
  Wall,                                   !- Surface Type
  ,                                       !- Construction Name
  {8ca218f8-4d6c-4a4b-b584-4303f5bc9c3e}, !- Space Name
  Outdoors,                               !- Outside Boundary Condition
  ,                                       !- Outside Boundary Condition Object
  SunExposed,                             !- Sun Exposure
  WindExposed,                            !- Wind Exposure
  ,                                       !- View Factor to Ground
  ,                                       !- Number of Vertices
  -50, 58, 3,                             !- X,Y,Z Vertex 1 {m}
  -50, 58, 0,                             !- X,Y,Z Vertex 2 {m}
  -54, 58, 0,                             !- X,Y,Z Vertex 3 {m}
  -54, 58, 3;                             !- X,Y,Z Vertex 4 {m}

OS:Surface,
  {6aa35412-f5c1-4749-8c8d-63631b8c395d}, !- Handle
   16,                                    !- Name
  Wall,                                   !- Surface Type
  ,                                       !- Construction Name
  {8ca218f8-4d6c-4a4b-b584-4303f5bc9c3e}, !- Space Name
  Surface,                                !- Outside Boundary Condition
  {6074bb7b-90bb-4e48-88b9-7f787daf7882}, !- Outside Boundary Condition Object
  NoSun,                                  !- Sun Exposure
  NoWind,                                 !- Wind Exposure
  ,                                       !- View Factor to Ground
  ,                                       !- Number of Vertices
  -54, 58, 3,                             !- X,Y,Z Vertex 1 {m}
  -54, 58, 0,                             !- X,Y,Z Vertex 2 {m}
  -54, 42, 0,                             !- X,Y,Z Vertex 3 {m}
  -54, 42, 3;                             !- X,Y,Z Vertex 4 {m}

OS:Surface,
  {0dd386eb-7967-415a-95fe-f230428294b3}, !- Handle
   15,                                    !- Name
  Wall,                                   !- Surface Type
  ,                                       !- Construction Name
  {8ca218f8-4d6c-4a4b-b584-4303f5bc9c3e}, !- Space Name
  Surface,                                !- Outside Boundary Condition
  {6dd46534-07bb-40ed-bd21-8f220fbfccc4}, !- Outside Boundary Condition Object
  NoSun,                                  !- Sun Exposure
  NoWind,                                 !- Wind Exposure
  ,                                       !- View Factor to Ground
  ,                                       !- Number of Vertices
  -54, 42, 3,                             !- X,Y,Z Vertex 1 {m}
  -54, 42, 0,                             !- X,Y,Z Vertex 2 {m}
  -54, 36, 0,                             !- X,Y,Z Vertex 3 {m}
  -54, 36, 3;                             !- X,Y,Z Vertex 4 {m}

OS:Surface,
  {f23aa706-39c4-40c1-b99e-c1f4b9019912}, !- Handle
   14,                                    !- Name
  Wall,                                   !- Surface Type
  ,                                       !- Construction Name
  {8ca218f8-4d6c-4a4b-b584-4303f5bc9c3e}, !- Space Name
  Outdoors,                               !- Outside Boundary Condition
  ,                                       !- Outside Boundary Condition Object
  SunExposed,                             !- Sun Exposure
  WindExposed,                            !- Wind Exposure
  ,                                       !- View Factor to Ground
  ,                                       !- Number of Vertices
  -54, 36, 3,                             !- X,Y,Z Vertex 1 {m}
  -54, 36, 0,                             !- X,Y,Z Vertex 2 {m}
  -50, 36, 0,                             !- X,Y,Z Vertex 3 {m}
  -50, 36, 3;                             !- X,Y,Z Vertex 4 {m}

OS:Surface,
  {8ffc0aef-2cd4-4d64-bc01-a9eef690c774}, !- Handle
   13,                                    !- Name
  RoofCeiling,                            !- Surface Type
  ,                                       !- Construction Name
  {8ca218f8-4d6c-4a4b-b584-4303f5bc9c3e}, !- Space Name
  Surface,                                !- Outside Boundary Condition
  {f33fae7d-39ef-4cf5-b2c0-429262ab67ee}, !- Outside Boundary Condition Object
  NoSun,                                  !- Sun Exposure
  NoWind,                                 !- Wind Exposure
  ,                                       !- View Factor to Ground
  ,                                       !- Number of Vertices
  -50, 58, 3,                             !- X,Y,Z Vertex 1 {m}
  -54, 58, 3,                             !- X,Y,Z Vertex 2 {m}
  -54, 42, 3,                             !- X,Y,Z Vertex 3 {m}
  -54, 36, 3,                             !- X,Y,Z Vertex 4 {m}
  -50, 36, 3;                             !- X,Y,Z Vertex 5 {m}

OS:Space,
  {4978355c-f5da-44c7-a9b6-05a8ce25582f}, !- Handle
  Space 1 - 2,                            !- Name
  {ca0a7030-d287-4d3c-9cab-eac84366f78b}, !- Space Type Name
  ,                                       !- Default Construction Set Name
  ,                                       !- Default Schedule Set Name
  ,                                       !- Direction of Relative North {deg}
  ,                                       !- X Origin {m}
  ,                                       !- Y Origin {m}
  ,                                       !- Z Origin {m}
  ,                                       !- Building Story Name
  {5a5e8d7f-066f-4fd0-a01b-a1fa827ab747}, !- Thermal Zone Name
  ,                                       !- Part of Total Floor Area
  ,                                       !- Design Specification Outdoor Air Object Name
  {67518280-458a-41b9-99da-e30172664d7f}; !- Building Unit Name

OS:SpaceType,
  {ca0a7030-d287-4d3c-9cab-eac84366f78b}, !- Handle
  113,                                    !- Name
  ,                                       !- Default Construction Set Name
  ,                                       !- Default Schedule Set Name
  ,                                       !- Group Rendering Name
  ,                                       !- Design Specification Outdoor Air Object Name
  ,                                       !- Standards Building Type
  garage;                                 !- Standards Space Type

OS:Surface,
  {beaf7997-3363-4777-9b96-1f625de3bbe2}, !- Handle
   11,                                    !- Name
  Wall,                                   !- Surface Type
  ,                                       !- Construction Name
  {4978355c-f5da-44c7-a9b6-05a8ce25582f}, !- Space Name
  Surface,                                !- Outside Boundary Condition
  {45663939-741d-4fc4-bde4-850e0998e20f}, !- Outside Boundary Condition Object
  NoSun,                                  !- Sun Exposure
  NoWind,                                 !- Wind Exposure
  ,                                       !- View Factor to Ground
  ,                                       !- Number of Vertices
  16, 36, 3,                              !- X,Y,Z Vertex 1 {m}
  16, 36, 0,                              !- X,Y,Z Vertex 2 {m}
  16, 58, 0,                              !- X,Y,Z Vertex 3 {m}
  16, 58, 3;                              !- X,Y,Z Vertex 4 {m}

OS:Surface,
  {1bdf29a5-5ff5-443b-8a89-805a4612e40d}, !- Handle
   10,                                    !- Name
  Wall,                                   !- Surface Type
  ,                                       !- Construction Name
  {4978355c-f5da-44c7-a9b6-05a8ce25582f}, !- Space Name
  Outdoors,                               !- Outside Boundary Condition
  ,                                       !- Outside Boundary Condition Object
  SunExposed,                             !- Sun Exposure
  WindExposed,                            !- Wind Exposure
  ,                                       !- View Factor to Ground
  ,                                       !- Number of Vertices
  16, 58, 3,                              !- X,Y,Z Vertex 1 {m}
  16, 58, 0,                              !- X,Y,Z Vertex 2 {m}
  6, 58, 0,                               !- X,Y,Z Vertex 3 {m}
  6, 58, 3;                               !- X,Y,Z Vertex 4 {m}

OS:Surface,
  {6564a068-3549-4d60-b9e8-f4d9d1cd6462}, !- Handle
   9,                                     !- Name
  Wall,                                   !- Surface Type
  ,                                       !- Construction Name
  {4978355c-f5da-44c7-a9b6-05a8ce25582f}, !- Space Name
  Surface,                                !- Outside Boundary Condition
  {0fecc4b9-782f-4fd0-8f16-ce4d949d8b6d}, !- Outside Boundary Condition Object
  NoSun,                                  !- Sun Exposure
  NoWind,                                 !- Wind Exposure
  ,                                       !- View Factor to Ground
  ,                                       !- Number of Vertices
  6, 58, 3,                               !- X,Y,Z Vertex 1 {m}
  6, 58, 0,                               !- X,Y,Z Vertex 2 {m}
  6, 36, 0,                               !- X,Y,Z Vertex 3 {m}
  6, 36, 3;                               !- X,Y,Z Vertex 4 {m}

OS:Surface,
  {60112997-2bd1-493e-a1db-042ffcbe2fde}, !- Handle
   8,                                     !- Name
  Wall,                                   !- Surface Type
  ,                                       !- Construction Name
  {4978355c-f5da-44c7-a9b6-05a8ce25582f}, !- Space Name
  Outdoors,                               !- Outside Boundary Condition
  ,                                       !- Outside Boundary Condition Object
  SunExposed,                             !- Sun Exposure
  WindExposed,                            !- Wind Exposure
  ,                                       !- View Factor to Ground
  ,                                       !- Number of Vertices
  6, 36, 3,                               !- X,Y,Z Vertex 1 {m}
  6, 36, 0,                               !- X,Y,Z Vertex 2 {m}
  16, 36, 0,                              !- X,Y,Z Vertex 3 {m}
  16, 36, 3;                              !- X,Y,Z Vertex 4 {m}

OS:Surface,
  {544fd1a1-de0e-46e3-9cdd-1e5a7acfb6eb}, !- Handle
   7,                                     !- Name
  RoofCeiling,                            !- Surface Type
  ,                                       !- Construction Name
  {4978355c-f5da-44c7-a9b6-05a8ce25582f}, !- Space Name
  Surface,                                !- Outside Boundary Condition
  {006a64b2-d087-4ed7-bd61-792e91fbb3bc}, !- Outside Boundary Condition Object
  NoSun,                                  !- Sun Exposure
  NoWind,                                 !- Wind Exposure
  ,                                       !- View Factor to Ground
  ,                                       !- Number of Vertices
  16, 36, 3,                              !- X,Y,Z Vertex 1 {m}
  16, 58, 3,                              !- X,Y,Z Vertex 2 {m}
  6, 58, 3,                               !- X,Y,Z Vertex 3 {m}
  6, 36, 3;                               !- X,Y,Z Vertex 4 {m}

OS:Surface,
  {cd10ee61-49a3-4e7b-88bc-f1703675db96}, !- Handle
   6,                                     !- Name
  Floor,                                  !- Surface Type
  ,                                       !- Construction Name
  {4978355c-f5da-44c7-a9b6-05a8ce25582f}, !- Space Name
  Ground,                                 !- Outside Boundary Condition
  ,                                       !- Outside Boundary Condition Object
  NoSun,                                  !- Sun Exposure
  NoWind,                                 !- Wind Exposure
  ,                                       !- View Factor to Ground
  ,                                       !- Number of Vertices
  16, 36, 0,                              !- X,Y,Z Vertex 1 {m}
  6, 36, 0,                               !- X,Y,Z Vertex 2 {m}
  6, 58, 0,                               !- X,Y,Z Vertex 3 {m}
  16, 58, 0;                              !- X,Y,Z Vertex 4 {m}

OS:Space,
  {3df50f93-29f5-4c30-8fc0-4a2504d3df15}, !- Handle
  Space 1 - 14,                           !- Name
  {813f5513-dbc5-47e6-96f6-8a816dc4e352}, !- Space Type Name
  ,                                       !- Default Construction Set Name
  ,                                       !- Default Schedule Set Name
  ,                                       !- Direction of Relative North {deg}
  ,                                       !- X Origin {m}
  ,                                       !- Y Origin {m}
  ,                                       !- Z Origin {m}
  ,                                       !- Building Story Name
  {5082b2f8-b774-4b96-94df-7e30709ce956}, !- Thermal Zone Name
  ,                                       !- Part of Total Floor Area
  ,                                       !- Design Specification Outdoor Air Object Name
  {3a3cbe67-eeca-4a57-a4f6-ae1c0d767628}; !- Building Unit Name

OS:SpaceType,
  {813f5513-dbc5-47e6-96f6-8a816dc4e352}, !- Handle
  16530,                                  !- Name
  ,                                       !- Default Construction Set Name
  ,                                       !- Default Schedule Set Name
  ,                                       !- Group Rendering Name
  ,                                       !- Design Specification Outdoor Air Object Name
  ,                                       !- Standards Building Type
  laundry room;                           !- Standards Space Type

OS:Surface,
  {103da4f5-5b0f-4c0a-9778-f7cc5a684047}, !- Handle
   83,                                    !- Name
  Floor,                                  !- Surface Type
  ,                                       !- Construction Name
  {3df50f93-29f5-4c30-8fc0-4a2504d3df15}, !- Space Name
  Ground,                                 !- Outside Boundary Condition
  ,                                       !- Outside Boundary Condition Object
  NoSun,                                  !- Sun Exposure
  NoWind,                                 !- Wind Exposure
  ,                                       !- View Factor to Ground
  ,                                       !- Number of Vertices
  112, 36, 0,                             !- X,Y,Z Vertex 1 {m}
  108, 36, 0,                             !- X,Y,Z Vertex 2 {m}
  108, 58, 0,                             !- X,Y,Z Vertex 3 {m}
  112, 58, 0;                             !- X,Y,Z Vertex 4 {m}

OS:Surface,
  {7568c60f-78ae-4fee-85a9-1d373f16bbb4}, !- Handle
   84,                                    !- Name
  RoofCeiling,                            !- Surface Type
  ,                                       !- Construction Name
  {3df50f93-29f5-4c30-8fc0-4a2504d3df15}, !- Space Name
  Surface,                                !- Outside Boundary Condition
  {b40b9c6f-943f-4ec0-a695-81aed31c99e9}, !- Outside Boundary Condition Object
  NoSun,                                  !- Sun Exposure
  NoWind,                                 !- Wind Exposure
  ,                                       !- View Factor to Ground
  ,                                       !- Number of Vertices
  112, 58, 3,                             !- X,Y,Z Vertex 1 {m}
  108, 58, 3,                             !- X,Y,Z Vertex 2 {m}
  108, 36, 3,                             !- X,Y,Z Vertex 3 {m}
  112, 36, 3;                             !- X,Y,Z Vertex 4 {m}

OS:Surface,
  {fff614d9-82f9-478b-990e-1db7f4455d5f}, !- Handle
   85,                                    !- Name
  Wall,                                   !- Surface Type
  ,                                       !- Construction Name
  {3df50f93-29f5-4c30-8fc0-4a2504d3df15}, !- Space Name
  Outdoors,                               !- Outside Boundary Condition
  ,                                       !- Outside Boundary Condition Object
  SunExposed,                             !- Sun Exposure
  WindExposed,                            !- Wind Exposure
  ,                                       !- View Factor to Ground
  ,                                       !- Number of Vertices
  108, 36, 3,                             !- X,Y,Z Vertex 1 {m}
  108, 36, 0,                             !- X,Y,Z Vertex 2 {m}
  112, 36, 0,                             !- X,Y,Z Vertex 3 {m}
  112, 36, 3;                             !- X,Y,Z Vertex 4 {m}

OS:Surface,
  {f3e79925-fa52-4818-94ff-a7dd4528cf24}, !- Handle
   86,                                    !- Name
  Wall,                                   !- Surface Type
  ,                                       !- Construction Name
  {3df50f93-29f5-4c30-8fc0-4a2504d3df15}, !- Space Name
  Surface,                                !- Outside Boundary Condition
  {8e9a3892-2182-4710-9bc1-b02cb7cdb899}, !- Outside Boundary Condition Object
  NoSun,                                  !- Sun Exposure
  NoWind,                                 !- Wind Exposure
  ,                                       !- View Factor to Ground
  ,                                       !- Number of Vertices
  108, 58, 3,                             !- X,Y,Z Vertex 1 {m}
  108, 58, 0,                             !- X,Y,Z Vertex 2 {m}
  108, 36, 0,                             !- X,Y,Z Vertex 3 {m}
  108, 36, 3;                             !- X,Y,Z Vertex 4 {m}

OS:Surface,
  {32fa1d4a-faaa-4f41-ad23-f4f95cdd3d5c}, !- Handle
   87,                                    !- Name
  Wall,                                   !- Surface Type
  ,                                       !- Construction Name
  {3df50f93-29f5-4c30-8fc0-4a2504d3df15}, !- Space Name
  Outdoors,                               !- Outside Boundary Condition
  ,                                       !- Outside Boundary Condition Object
  SunExposed,                             !- Sun Exposure
  WindExposed,                            !- Wind Exposure
  ,                                       !- View Factor to Ground
  ,                                       !- Number of Vertices
  112, 58, 3,                             !- X,Y,Z Vertex 1 {m}
  112, 58, 0,                             !- X,Y,Z Vertex 2 {m}
  108, 58, 0,                             !- X,Y,Z Vertex 3 {m}
  108, 58, 3;                             !- X,Y,Z Vertex 4 {m}

OS:Surface,
  {4b0e3b0e-4569-45f8-8f4d-e77208ef0976}, !- Handle
   88,                                    !- Name
  Wall,                                   !- Surface Type
  ,                                       !- Construction Name
  {3df50f93-29f5-4c30-8fc0-4a2504d3df15}, !- Space Name
  Outdoors,                               !- Outside Boundary Condition
  ,                                       !- Outside Boundary Condition Object
  SunExposed,                             !- Sun Exposure
  WindExposed,                            !- Wind Exposure
  ,                                       !- View Factor to Ground
  ,                                       !- Number of Vertices
  112, 36, 3,                             !- X,Y,Z Vertex 1 {m}
  112, 36, 0,                             !- X,Y,Z Vertex 2 {m}
  112, 58, 0,                             !- X,Y,Z Vertex 3 {m}
  112, 58, 3;                             !- X,Y,Z Vertex 4 {m}

OS:Space,
  {8d8fad34-acca-4d38-b1ff-1277b136deb0}, !- Handle
  Space 1 - 13,                           !- Name
  {813f5513-dbc5-47e6-96f6-8a816dc4e352}, !- Space Type Name
  ,                                       !- Default Construction Set Name
  ,                                       !- Default Schedule Set Name
  ,                                       !- Direction of Relative North {deg}
  ,                                       !- X Origin {m}
  ,                                       !- Y Origin {m}
  ,                                       !- Z Origin {m}
  ,                                       !- Building Story Name
  {287a50b3-eb7d-482f-b6b1-f991453e9034}, !- Thermal Zone Name
  ,                                       !- Part of Total Floor Area
  ,                                       !- Design Specification Outdoor Air Object Name
  {67518280-458a-41b9-99da-e30172664d7f}; !- Building Unit Name

OS:Surface,
  {a133bb55-8c83-4c6d-a263-68ff0fc797ef}, !- Handle
   76,                                    !- Name
  Floor,                                  !- Surface Type
  ,                                       !- Construction Name
  {8d8fad34-acca-4d38-b1ff-1277b136deb0}, !- Space Name
  Ground,                                 !- Outside Boundary Condition
  ,                                       !- Outside Boundary Condition Object
  NoSun,                                  !- Sun Exposure
  NoWind,                                 !- Wind Exposure
  ,                                       !- View Factor to Ground
  ,                                       !- Number of Vertices
  20, 42, 0,                              !- X,Y,Z Vertex 1 {m}
  20, 36, 0,                              !- X,Y,Z Vertex 2 {m}
  16, 36, 0,                              !- X,Y,Z Vertex 3 {m}
  16, 58, 0,                              !- X,Y,Z Vertex 4 {m}
  20, 58, 0;                              !- X,Y,Z Vertex 5 {m}

OS:Surface,
  {d1072afe-2063-4f16-86a1-01bdcd4a61c7}, !- Handle
   77,                                    !- Name
  RoofCeiling,                            !- Surface Type
  ,                                       !- Construction Name
  {8d8fad34-acca-4d38-b1ff-1277b136deb0}, !- Space Name
  Surface,                                !- Outside Boundary Condition
  {9582042c-c27b-4308-977f-15070b35160c}, !- Outside Boundary Condition Object
  NoSun,                                  !- Sun Exposure
  NoWind,                                 !- Wind Exposure
  ,                                       !- View Factor to Ground
  ,                                       !- Number of Vertices
  20, 36, 3,                              !- X,Y,Z Vertex 1 {m}
  20, 58, 3,                              !- X,Y,Z Vertex 2 {m}
  19.91062602368, 58, 3,                  !- X,Y,Z Vertex 3 {m}
  19.91062602368, 36, 3;                  !- X,Y,Z Vertex 4 {m}

OS:Surface,
  {4d57a4eb-2104-467e-9017-00876541c94a}, !- Handle
   78,                                    !- Name
  Wall,                                   !- Surface Type
  ,                                       !- Construction Name
  {8d8fad34-acca-4d38-b1ff-1277b136deb0}, !- Space Name
  Surface,                                !- Outside Boundary Condition
  {8f9403d5-1596-4acc-a85e-d66f205c4bca}, !- Outside Boundary Condition Object
  NoSun,                                  !- Sun Exposure
  NoWind,                                 !- Wind Exposure
  ,                                       !- View Factor to Ground
  ,                                       !- Number of Vertices
  20, 36, 3,                              !- X,Y,Z Vertex 1 {m}