!- NOTE: Auto-generated from /test/osw_files/MF_2units_Multizone_2story_SL_UA_GRG_2Bed_2Bath_Denver_GasWHTank.osw

OS:Version,
  {62e5a55c-3b9d-4656-84cb-ff5106eaff13}, !- Handle
  2.2.1;                                  !- Version Identifier

OS:Building,
  {bf305633-c5a1-4881-9edf-ca5e1a8e1274}, !- Handle
  Building,                               !- Name
  ,                                       !- Building Sector Type
  ,                                       !- North Axis {deg}
  ,                                       !- Nominal Floor to Floor Height {m}
  ,                                       !- Space Type Name
  ,                                       !- Default Construction Set Name
  ,                                       !- Default Schedule Set Name
  ,                                       !- Standards Number of Stories
  2,                                      !- Standards Number of Above Ground Stories
  singlefamilyttached;                    !- Standards Building Type

OS:YearDescription,
  {513d8dda-86cb-442a-b01c-1f7f0e0ac70e}; !- Handle

OS:SimulationControl,
  {2c487a4c-bac9-4ac5-b669-1e49d9da7c2b}, !- Handle
  ,                                       !- Do Zone Sizing Calculation
  ,                                       !- Do System Sizing Calculation
  ,                                       !- Do Plant Sizing Calculation
  No,                                     !- Run Simulation for Sizing Periods
  ;                                       !- Run Simulation for Weather File Run Periods

OS:Timestep,
  {4ebc9f1e-4707-402e-9844-67eb1ffbd522}, !- Handle
  6;                                      !- Number of Timesteps per Hour

OS:RunPeriod,
  {28df894d-6af9-4fb8-8f56-df1753344aa3}, !- Handle
  Run Period,                             !- Name
  1,                                      !- Begin Month
  1,                                      !- Begin Day of Month
  12,                                     !- End Month
  31,                                     !- End Day of Month
  ,                                       !- Use Weather File Holidays and Special Days
  ,                                       !- Use Weather File Daylight Saving Period
  ,                                       !- Apply Weekend Holiday Rule
  ,                                       !- Use Weather File Rain Indicators
  ,                                       !- Use Weather File Snow Indicators
  ;                                       !- Number of Times Runperiod to be Repeated

OS:Sizing:Parameters,
  {dde5af6f-7923-4600-a28a-7556673a0266}, !- Handle
  1.0,                                    !- Heating Sizing Factor
  1.0;                                    !- Cooling Sizing Factor

OS:ShadowCalculation,
  {ca758bea-4416-4626-9bba-3d8795c79bd6}, !- Handle
  20,                                     !- Calculation Frequency
  200;                                    !- Maximum Figures in Shadow Overlap Calculations

OS:SurfaceConvectionAlgorithm:Inside,
  {aaabfc36-718a-4ab0-b622-f186ebb45230}, !- Handle
  TARP;                                   !- Algorithm

OS:SurfaceConvectionAlgorithm:Outside,
  {9a0a9f6f-4bbd-4b12-a121-9492a1fcd7d6}, !- Handle
  DOE-2;                                  !- Algorithm

OS:HeatBalanceAlgorithm,
  {9d93e563-e1e0-46d7-9e39-d1c8aceb7212}, !- Handle
  ConductionTransferFunction,             !- Algorithm
  200;                                    !- Surface Temperature Upper Limit {C}

OS:ZoneCapacitanceMultiplier:ResearchSpecial,
  {6bfced16-b16f-47f6-8223-f7e267d75d19}, !- Handle
  ,                                       !- Temperature Capacity Multiplier
  15,                                     !- Humidity Capacity Multiplier
  ;                                       !- Carbon Dioxide Capacity Multiplier

OS:Space,
  {51d7db31-b122-4586-bff2-c412a20f6879}, !- Handle
  Space 1 - 11,                           !- Name
  {70d08663-c207-4452-b141-2b6d090f0625}, !- Space Type Name
  ,                                       !- Default Construction Set Name
  ,                                       !- Default Schedule Set Name
  ,                                       !- Direction of Relative North {deg}
  ,                                       !- X Origin {m}
  ,                                       !- Y Origin {m}
  ,                                       !- Z Origin {m}
  {b53cdf83-9e32-48db-9e50-190d5bb376fa}, !- Building Story Name
  {58a0650c-3ed3-4608-8b83-2e7d2b48a0d4}, !- Thermal Zone Name
  ,                                       !- Part of Total Floor Area
  ,                                       !- Design Specification Outdoor Air Object Name
  {a4bb26d8-2acc-431b-97c9-f9faec5232b1}; !- Building Unit Name

OS:Surface,
  {d6a7e5f5-1e55-43e6-b553-0895202f629d}, !- Handle
   62,                                    !- Name
  Floor,                                  !- Surface Type
  ,                                       !- Construction Name
  {51d7db31-b122-4586-bff2-c412a20f6879}, !- Space Name
  Ground,                                 !- Outside Boundary Condition
  ,                                       !- Outside Boundary Condition Object
  NoSun,                                  !- Sun Exposure
  NoWind,                                 !- Wind Exposure
  ,                                       !- View Factor to Ground
  ,                                       !- Number of Vertices
  26.2128, 17.6784, 0,                    !- X,Y,Z Vertex 1 {m}
  29.8431588120177, 17.6784, 0,           !- X,Y,Z Vertex 2 {m}
  29.8704, 17.6784, 0,                    !- X,Y,Z Vertex 3 {m}
  29.8704, 10.9728, 0,                    !- X,Y,Z Vertex 4 {m}
  29.8431588120177, 10.9728, 0,           !- X,Y,Z Vertex 5 {m}
  26.2128, 10.9728, 0;                    !- X,Y,Z Vertex 6 {m}

OS:Surface,
  {f56728ed-7ffb-4c5e-9fd2-b4c47103fc50}, !- Handle
   63,                                    !- Name
  RoofCeiling,                            !- Surface Type
  ,                                       !- Construction Name
  {51d7db31-b122-4586-bff2-c412a20f6879}, !- Space Name
  Surface,                                !- Outside Boundary Condition
  {6b5c19c2-861d-475d-ad23-0ba7f6ff1bfa}, !- Outside Boundary Condition Object
  NoSun,                                  !- Sun Exposure
  NoWind,                                 !- Wind Exposure
  ,                                       !- View Factor to Ground
  ,                                       !- Number of Vertices
  29.8704, 10.9728, 3,                    !- X,Y,Z Vertex 1 {m}
  29.8704, 17.6784, 3,                    !- X,Y,Z Vertex 2 {m}
  26.2128, 17.6784, 3,                    !- X,Y,Z Vertex 3 {m}
  26.2128, 10.9728, 3;                    !- X,Y,Z Vertex 4 {m}

OS:Surface,
  {89ac9302-7406-45a7-ac69-216a810f2a1d}, !- Handle
   64,                                    !- Name
  Wall,                                   !- Surface Type
  ,                                       !- Construction Name
  {51d7db31-b122-4586-bff2-c412a20f6879}, !- Space Name
  Outdoors,                               !- Outside Boundary Condition
  ,                                       !- Outside Boundary Condition Object
  SunExposed,                             !- Sun Exposure
  WindExposed,                            !- Wind Exposure
  ,                                       !- View Factor to Ground
  ,                                       !- Number of Vertices
  29.8431588120177, 17.6784, 3,           !- X,Y,Z Vertex 1 {m}
  29.8431588120177, 17.6784, 0,           !- X,Y,Z Vertex 2 {m}
  26.2128, 17.6784, 0,                    !- X,Y,Z Vertex 3 {m}
  26.2128, 17.6784, 3;                    !- X,Y,Z Vertex 4 {m}

OS:Surface,
  {ea3835f1-0bac-44d0-b068-8bb0c1caea19}, !- Handle
   65,                                    !- Name
  Wall,                                   !- Surface Type
  ,                                       !- Construction Name
  {51d7db31-b122-4586-bff2-c412a20f6879}, !- Space Name
  Outdoors,                               !- Outside Boundary Condition
  ,                                       !- Outside Boundary Condition Object
  SunExposed,                             !- Sun Exposure
  WindExposed,                            !- Wind Exposure
  ,                                       !- View Factor to Ground
  ,                                       !- Number of Vertices
  29.8704, 17.6784, 3,                    !- X,Y,Z Vertex 1 {m}
  29.8704, 17.6784, 0,                    !- X,Y,Z Vertex 2 {m}
  29.8431588120177, 17.6784, 0,           !- X,Y,Z Vertex 3 {m}
  29.8431588120177, 17.6784, 3;           !- X,Y,Z Vertex 4 {m}

OS:Surface,
  {43b7cfbe-d231-4618-8ec2-5759ae0b13c4}, !- Handle
   66,                                    !- Name
  Wall,                                   !- Surface Type
  ,                                       !- Construction Name
  {51d7db31-b122-4586-bff2-c412a20f6879}, !- Space Name
  Surface,                                !- Outside Boundary Condition
  {83f29d9e-85fb-4ae9-952a-4747f96bfc05}, !- Outside Boundary Condition Object
  NoSun,                                  !- Sun Exposure
  NoWind,                                 !- Wind Exposure
  ,                                       !- View Factor to Ground
  ,                                       !- Number of Vertices
  29.8704, 10.9728, 3,                    !- X,Y,Z Vertex 1 {m}
  29.8704, 10.9728, 0,                    !- X,Y,Z Vertex 2 {m}
  29.8704, 17.6784, 0,                    !- X,Y,Z Vertex 3 {m}
  29.8704, 17.6784, 3;                    !- X,Y,Z Vertex 4 {m}

OS:Surface,
  {da84bc08-6ecc-473d-b9d7-4383c8213111}, !- Handle
   67,                                    !- Name
  Wall,                                   !- Surface Type
  ,                                       !- Construction Name
  {51d7db31-b122-4586-bff2-c412a20f6879}, !- Space Name
  Outdoors,                               !- Outside Boundary Condition
  ,                                       !- Outside Boundary Condition Object
  SunExposed,                             !- Sun Exposure
  WindExposed,                            !- Wind Exposure
  ,                                       !- View Factor to Ground
  ,                                       !- Number of Vertices
  29.8431588120177, 10.9728, 3,           !- X,Y,Z Vertex 1 {m}
  29.8431588120177, 10.9728, 0,           !- X,Y,Z Vertex 2 {m}
  29.8704, 10.9728, 0,                    !- X,Y,Z Vertex 3 {m}
  29.8704, 10.9728, 3;                    !- X,Y,Z Vertex 4 {m}

OS:Surface,
  {166c485f-5ab0-4b50-bbd0-063cd8c37518}, !- Handle
   68,                                    !- Name
  Wall,                                   !- Surface Type
  ,                                       !- Construction Name
  {51d7db31-b122-4586-bff2-c412a20f6879}, !- Space Name
  Outdoors,                               !- Outside Boundary Condition
  ,                                       !- Outside Boundary Condition Object
  SunExposed,                             !- Sun Exposure
  WindExposed,                            !- Wind Exposure
  ,                                       !- View Factor to Ground
  ,                                       !- Number of Vertices
  26.2128, 10.9728, 3,                    !- X,Y,Z Vertex 1 {m}
  26.2128, 10.9728, 0,                    !- X,Y,Z Vertex 2 {m}
  29.8431588120177, 10.9728, 0,           !- X,Y,Z Vertex 3 {m}
  29.8431588120177, 10.9728, 3;           !- X,Y,Z Vertex 4 {m}

OS:Surface,
  {ff93242c-67d2-4f40-a266-412899690bdd}, !- Handle
   69,                                    !- Name
  Wall,                                   !- Surface Type
  ,                                       !- Construction Name
  {51d7db31-b122-4586-bff2-c412a20f6879}, !- Space Name
  Surface,                                !- Outside Boundary Condition
  {9efbbcb8-f065-471d-8e82-167024dbf7e1}, !- Outside Boundary Condition Object
  NoSun,                                  !- Sun Exposure
  NoWind,                                 !- Wind Exposure
  ,                                       !- View Factor to Ground
  ,                                       !- Number of Vertices
  26.2128, 17.6784, 3,                    !- X,Y,Z Vertex 1 {m}
  26.2128, 17.6784, 0,                    !- X,Y,Z Vertex 2 {m}
  26.2128, 10.9728, 0,                    !- X,Y,Z Vertex 3 {m}
  26.2128, 10.9728, 3;                    !- X,Y,Z Vertex 4 {m}

OS:ThermalZone,
  {58a0650c-3ed3-4608-8b83-2e7d2b48a0d4}, !- Handle
  kitchen zone unit 2,                    !- Name
  ,                                       !- Multiplier
  ,                                       !- Ceiling Height {m}
  ,                                       !- Volume {m3}
  ,                                       !- Floor Area {m2}
  ,                                       !- Zone Inside Convection Algorithm
  ,                                       !- Zone Outside Convection Algorithm
  ,                                       !- Zone Conditioning Equipment List Name
  {e1c0c4cb-6603-4ab0-ba19-3d8d3c08f2ec}, !- Zone Air Inlet Port List
  {99b56e49-479a-45f9-95ef-186f30a50f32}, !- Zone Air Exhaust Port List
  {fdd0746d-084c-41df-b563-22b1d2d1342f}, !- Zone Air Node Name
  ,                                       !- Zone Return Air Node Name
  ,                                       !- Primary Daylighting Control Name
  ,                                       !- Fraction of Zone Controlled by Primary Daylighting Control
  ,                                       !- Secondary Daylighting Control Name
  ,                                       !- Fraction of Zone Controlled by Secondary Daylighting Control
  ,                                       !- Illuminance Map Name
  ,                                       !- Group Rendering Name
  ,                                       !- Thermostat Name
  No;                                     !- Use Ideal Air Loads

OS:Node,
  {ca787a53-0d41-417d-a1f4-d42df717a1b1}, !- Handle
  Node 1,                                 !- Name
  {fdd0746d-084c-41df-b563-22b1d2d1342f}, !- Inlet Port
  ;                                       !- Outlet Port

OS:Connection,
  {fdd0746d-084c-41df-b563-22b1d2d1342f}, !- Handle
  {b005d607-8b92-415c-a291-6a99e0095aaf}, !- Name
  {58a0650c-3ed3-4608-8b83-2e7d2b48a0d4}, !- Source Object
  11,                                     !- Outlet Port
  {ca787a53-0d41-417d-a1f4-d42df717a1b1}, !- Target Object
  2;                                      !- Inlet Port

OS:PortList,
  {e1c0c4cb-6603-4ab0-ba19-3d8d3c08f2ec}, !- Handle
  {9fdb4185-99ab-420d-abe8-beade302d66b}, !- Name
  {58a0650c-3ed3-4608-8b83-2e7d2b48a0d4}; !- HVAC Component

OS:PortList,
  {99b56e49-479a-45f9-95ef-186f30a50f32}, !- Handle
  {7d6a8b7d-4594-4522-b049-ba0c4ce9362c}, !- Name
  {58a0650c-3ed3-4608-8b83-2e7d2b48a0d4}; !- HVAC Component

OS:Sizing:Zone,
  {cf8803dd-748e-48d5-8e4f-bc5a16fb98ad}, !- Handle
  {58a0650c-3ed3-4608-8b83-2e7d2b48a0d4}, !- Zone or ZoneList Name
  SupplyAirTemperature,                   !- Zone Cooling Design Supply Air Temperature Input Method
  14,                                     !- Zone Cooling Design Supply Air Temperature {C}
  11.11,                                  !- Zone Cooling Design Supply Air Temperature Difference {deltaC}
  SupplyAirTemperature,                   !- Zone Heating Design Supply Air Temperature Input Method
  40,                                     !- Zone Heating Design Supply Air Temperature {C}
  11.11,                                  !- Zone Heating Design Supply Air Temperature Difference {deltaC}
  0.0085,                                 !- Zone Cooling Design Supply Air Humidity Ratio {kg-H2O/kg-air}
  0.008,                                  !- Zone Heating Design Supply Air Humidity Ratio {kg-H2O/kg-air}
  ,                                       !- Zone Heating Sizing Factor
  ,                                       !- Zone Cooling Sizing Factor
  DesignDay,                              !- Cooling Design Air Flow Method
  ,                                       !- Cooling Design Air Flow Rate {m3/s}
  ,                                       !- Cooling Minimum Air Flow per Zone Floor Area {m3/s-m2}
  ,                                       !- Cooling Minimum Air Flow {m3/s}
  ,                                       !- Cooling Minimum Air Flow Fraction
  DesignDay,                              !- Heating Design Air Flow Method
  ,                                       !- Heating Design Air Flow Rate {m3/s}
  ,                                       !- Heating Maximum Air Flow per Zone Floor Area {m3/s-m2}
  ,                                       !- Heating Maximum Air Flow {m3/s}
  ,                                       !- Heating Maximum Air Flow Fraction
  ,                                       !- Design Zone Air Distribution Effectiveness in Cooling Mode
  ,                                       !- Design Zone Air Distribution Effectiveness in Heating Mode
  No,                                     !- Account for Dedicated Outdoor Air System
  NeutralSupplyAir,                       !- Dedicated Outdoor Air System Control Strategy
  autosize,                               !- Dedicated Outdoor Air Low Setpoint Temperature for Design {C}
  autosize;                               !- Dedicated Outdoor Air High Setpoint Temperature for Design {C}

OS:ZoneHVAC:EquipmentList,
  {973c072a-ed6e-469b-98a3-b436be79cf4c}, !- Handle
  Zone HVAC Equipment List 1,             !- Name
  {58a0650c-3ed3-4608-8b83-2e7d2b48a0d4}; !- Thermal Zone

OS:SpaceType,
  {70d08663-c207-4452-b141-2b6d090f0625}, !- Handle
  kitchen,                                !- Name
  ,                                       !- Default Construction Set Name
  ,                                       !- Default Schedule Set Name
  ,                                       !- Group Rendering Name
  ,                                       !- Design Specification Outdoor Air Object Name
  ,                                       !- Standards Building Type
  kitchen;                                !- Standards Space Type

OS:BuildingStory,
  {b53cdf83-9e32-48db-9e50-190d5bb376fa}, !- Handle
  Story 1,                                !- Name
  ,                                       !- Nominal Z Coordinate {m}
  ,                                       !- Nominal Floor to Floor Height {m}
  ,                                       !- Default Construction Set Name
  ,                                       !- Default Schedule Set Name
  ;                                       !- Group Rendering Name

OS:BuildingUnit,
  {a4bb26d8-2acc-431b-97c9-f9faec5232b1}, !- Handle
  unit 2,                                 !- Name
  ,                                       !- Rendering Color
  ,                                       !- Building Unit Type
  SizingInfoGarageFracUnderFinishedSpace, !- Building Unit Feature Name 1
  Double,                                 !- Building Unit Feature Data Type 1
  0.5,                                    !- Building Unit Feature Value 1
  NumberOfBedrooms,                       !- Building Unit Feature Name 2
  Integer,                                !- Building Unit Feature Data Type 2
  2,                                      !- Building Unit Feature Value 2
  NumberOfBathrooms,                      !- Building Unit Feature Name 3
  Double,                                 !- Building Unit Feature Data Type 3
  1,                                      !- Building Unit Feature Value 3
  DHWSchedIndex,                          !- Building Unit Feature Name 4
  Integer,                                !- Building Unit Feature Data Type 4
  0;                                      !- Building Unit Feature Value 4

OS:Space,
  {ab5dce6b-676b-48d9-b864-8c90de26f2b2}, !- Handle
  Space 2 - 4,                            !- Name
  {2a62e7de-374b-4c38-adf2-1c38c475c2f6}, !- Space Type Name
  ,                                       !- Default Construction Set Name
  ,                                       !- Default Schedule Set Name
  ,                                       !- Direction of Relative North {deg}
  ,                                       !- X Origin {m}
  ,                                       !- Y Origin {m}
  ,                                       !- Z Origin {m}
  {e3b2a7ed-ca8b-4372-aba4-8f8103b6da59}, !- Building Story Name
  {6757a3a6-eff8-409d-8c1c-a57be0791bb9}, !- Thermal Zone Name
  ,                                       !- Part of Total Floor Area
  ,                                       !- Design Specification Outdoor Air Object Name
  {bc5023c8-30b2-4d0c-88f0-a9e184fbc80c}; !- Building Unit Name

OS:Surface,
  {e4a2e27a-6818-44d7-a323-770e1938e2f0}, !- Handle
   110,                                   !- Name
  Floor,                                  !- Surface Type
  ,                                       !- Construction Name
  {ab5dce6b-676b-48d9-b864-8c90de26f2b2}, !- Space Name
  Surface,                                !- Outside Boundary Condition
  {571a4780-64f4-441f-8e0e-e9bf572103dc}, !- Outside Boundary Condition Object
  NoSun,                                  !- Sun Exposure
  NoWind,                                 !- Wind Exposure
  ,                                       !- View Factor to Ground
  ,                                       !- Number of Vertices
  -16.4592, 10.9728, 3,                   !- X,Y,Z Vertex 1 {m}
  -20.7264, 10.9728, 3,                   !- X,Y,Z Vertex 2 {m}
  -20.7264, 12.8016, 3,                   !- X,Y,Z Vertex 3 {m}
  -16.4592, 12.8016, 3;                   !- X,Y,Z Vertex 4 {m}

OS:Surface,
  {0152b54f-8245-4672-8809-ed3730299bdb}, !- Handle
   111,                                   !- Name
  RoofCeiling,                            !- Surface Type
  ,                                       !- Construction Name
  {ab5dce6b-676b-48d9-b864-8c90de26f2b2}, !- Space Name
  Surface,                                !- Outside Boundary Condition
  {b20b486a-5c21-4621-9f3c-ee1178a76f12}, !- Outside Boundary Condition Object
  NoSun,                                  !- Sun Exposure
  NoWind,                                 !- Wind Exposure
  ,                                       !- View Factor to Ground
  ,                                       !- Number of Vertices
  -16.4592, 12.8016, 6,                   !- X,Y,Z Vertex 1 {m}
  -20.7264, 12.8016, 6,                   !- X,Y,Z Vertex 2 {m}
  -20.7264, 10.9728, 6,                   !- X,Y,Z Vertex 3 {m}
  -16.4592, 10.9728, 6;                   !- X,Y,Z Vertex 4 {m}

OS:Surface,
  {40a5d66f-9e54-4662-9f5a-767161f3d277}, !- Handle
   112,                                   !- Name
  Wall,                                   !- Surface Type
  ,                                       !- Construction Name
  {ab5dce6b-676b-48d9-b864-8c90de26f2b2}, !- Space Name
  Outdoors,                               !- Outside Boundary Condition
  ,                                       !- Outside Boundary Condition Object
  SunExposed,                             !- Sun Exposure
  WindExposed,                            !- Wind Exposure
  ,                                       !- View Factor to Ground
  ,                                       !- Number of Vertices
  -20.7264, 10.9728, 6,                   !- X,Y,Z Vertex 1 {m}
  -20.7264, 10.9728, 3,                   !- X,Y,Z Vertex 2 {m}
  -16.4592, 10.9728, 3,                   !- X,Y,Z Vertex 3 {m}
  -16.4592, 10.9728, 6;                   !- X,Y,Z Vertex 4 {m}

OS:Surface,
  {183f21c4-6f3e-4546-baf1-187034d3c262}, !- Handle
   113,                                   !- Name
  Wall,                                   !- Surface Type
  ,                                       !- Construction Name
  {ab5dce6b-676b-48d9-b864-8c90de26f2b2}, !- Space Name
  Outdoors,                               !- Outside Boundary Condition
  ,                                       !- Outside Boundary Condition Object
  SunExposed,                             !- Sun Exposure
  WindExposed,                            !- Wind Exposure
  ,                                       !- View Factor to Ground
  ,                                       !- Number of Vertices
  -20.7264, 12.8016, 6,                   !- X,Y,Z Vertex 1 {m}
  -20.7264, 12.8016, 3,                   !- X,Y,Z Vertex 2 {m}
  -20.7264, 10.9728, 3,                   !- X,Y,Z Vertex 3 {m}
  -20.7264, 10.9728, 6;                   !- X,Y,Z Vertex 4 {m}

OS:Surface,
  {5ce341a1-4e60-428c-9ebe-91bcacdcaf49}, !- Handle
   114,                                   !- Name
  Wall,                                   !- Surface Type
  ,                                       !- Construction Name
  {ab5dce6b-676b-48d9-b864-8c90de26f2b2}, !- Space Name
  Surface,                                !- Outside Boundary Condition
  {d75883e1-c220-4ffd-b995-4d9ad3735d21}, !- Outside Boundary Condition Object
  NoSun,                                  !- Sun Exposure
  NoWind,                                 !- Wind Exposure
  ,                                       !- View Factor to Ground
  ,                                       !- Number of Vertices
  -16.4592, 12.8016, 6,                   !- X,Y,Z Vertex 1 {m}
  -16.4592, 12.8016, 3,                   !- X,Y,Z Vertex 2 {m}
  -20.7264, 12.8016, 3,                   !- X,Y,Z Vertex 3 {m}
  -20.7264, 12.8016, 6;                   !- X,Y,Z Vertex 4 {m}

OS:Surface,
  {20c197b5-bd3c-4f29-80c3-6d795859e5c3}, !- Handle
   115,                                   !- Name
  Wall,                                   !- Surface Type
  ,                                       !- Construction Name
  {ab5dce6b-676b-48d9-b864-8c90de26f2b2}, !- Space Name
  Surface,                                !- Outside Boundary Condition
  {38bc2175-a85d-4660-b6f8-0a5b74546fdb}, !- Outside Boundary Condition Object
  NoSun,                                  !- Sun Exposure
  NoWind,                                 !- Wind Exposure
  ,                                       !- View Factor to Ground
  ,                                       !- Number of Vertices
  -16.4592, 10.9728, 6,                   !- X,Y,Z Vertex 1 {m}
  -16.4592, 10.9728, 3,                   !- X,Y,Z Vertex 2 {m}
  -16.4592, 12.8016, 3,                   !- X,Y,Z Vertex 3 {m}
  -16.4592, 12.8016, 6;                   !- X,Y,Z Vertex 4 {m}

OS:ThermalZone,
  {6757a3a6-eff8-409d-8c1c-a57be0791bb9}, !- Handle
  bathroom 2 zone unit 1,                 !- Name
  ,                                       !- Multiplier
  ,                                       !- Ceiling Height {m}
  ,                                       !- Volume {m3}
  ,                                       !- Floor Area {m2}
  ,                                       !- Zone Inside Convection Algorithm
  ,                                       !- Zone Outside Convection Algorithm
  ,                                       !- Zone Conditioning Equipment List Name
  {9e1effc0-e831-44ac-ba34-2f677500ff40}, !- Zone Air Inlet Port List
  {b044265e-bd65-4543-839f-2e0ba4ae4b05}, !- Zone Air Exhaust Port List
  {1e30c201-68e6-43fc-b890-d33b399c5289}, !- Zone Air Node Name
  ,                                       !- Zone Return Air Node Name
  ,                                       !- Primary Daylighting Control Name
  ,                                       !- Fraction of Zone Controlled by Primary Daylighting Control
  ,                                       !- Secondary Daylighting Control Name
  ,                                       !- Fraction of Zone Controlled by Secondary Daylighting Control
  ,                                       !- Illuminance Map Name
  ,                                       !- Group Rendering Name
  ,                                       !- Thermostat Name
  No;                                     !- Use Ideal Air Loads

OS:Node,
  {095244ef-333d-4c54-a7b4-d6cad90058aa}, !- Handle
  Node 2,                                 !- Name
  {1e30c201-68e6-43fc-b890-d33b399c5289}, !- Inlet Port
  ;                                       !- Outlet Port

OS:Connection,
  {1e30c201-68e6-43fc-b890-d33b399c5289}, !- Handle
  {4ca5a0a0-2dff-480e-a1cf-a5e02a6a6101}, !- Name
  {6757a3a6-eff8-409d-8c1c-a57be0791bb9}, !- Source Object
  11,                                     !- Outlet Port
  {095244ef-333d-4c54-a7b4-d6cad90058aa}, !- Target Object
  2;                                      !- Inlet Port

OS:PortList,
  {9e1effc0-e831-44ac-ba34-2f677500ff40}, !- Handle
  {2565fe2e-1d7c-4d5f-8411-8725b9752729}, !- Name
  {6757a3a6-eff8-409d-8c1c-a57be0791bb9}; !- HVAC Component

OS:PortList,
  {b044265e-bd65-4543-839f-2e0ba4ae4b05}, !- Handle
  {606dce04-edce-4d9a-8672-8bfba8e628c9}, !- Name
  {6757a3a6-eff8-409d-8c1c-a57be0791bb9}; !- HVAC Component

OS:Sizing:Zone,
  {d0ab8452-c970-47f9-9dea-f3677aeea786}, !- Handle
  {6757a3a6-eff8-409d-8c1c-a57be0791bb9}, !- Zone or ZoneList Name
  SupplyAirTemperature,                   !- Zone Cooling Design Supply Air Temperature Input Method
  14,                                     !- Zone Cooling Design Supply Air Temperature {C}
  11.11,                                  !- Zone Cooling Design Supply Air Temperature Difference {deltaC}
  SupplyAirTemperature,                   !- Zone Heating Design Supply Air Temperature Input Method
  40,                                     !- Zone Heating Design Supply Air Temperature {C}
  11.11,                                  !- Zone Heating Design Supply Air Temperature Difference {deltaC}
  0.0085,                                 !- Zone Cooling Design Supply Air Humidity Ratio {kg-H2O/kg-air}
  0.008,                                  !- Zone Heating Design Supply Air Humidity Ratio {kg-H2O/kg-air}
  ,                                       !- Zone Heating Sizing Factor
  ,                                       !- Zone Cooling Sizing Factor
  DesignDay,                              !- Cooling Design Air Flow Method