!- NOTE: Auto-generated from /test/osw_files/SFD_2000sqft_2story_SL_UA_AllLayersButExteriorFinish_CeilingIns.osw

OS:Version,
  {3edae1f7-9444-44a6-8f94-a8e1ad8dba19}, !- Handle
  2.2.1;                                  !- Version Identifier

OS:Building,
  {bf305633-c5a1-4881-9edf-ca5e1a8e1274}, !- Handle
  Building,                               !- Name
  ,                                       !- Building Sector Type
  ,                                       !- North Axis {deg}
  ,                                       !- Nominal Floor to Floor Height {m}
  ,                                       !- Space Type Name
  ,                                       !- Default Construction Set Name
  ,                                       !- Default Schedule Set Name
  2,                                      !- Standards Number of Stories
  2,                                      !- Standards Number of Above Ground Stories
  singlefamilydetached,                   !- Standards Building Type
  1;                                      !- Standards Number of Living Units

OS:YearDescription,
  {513d8dda-86cb-442a-b01c-1f7f0e0ac70e}; !- Handle

OS:SimulationControl,
  {2c487a4c-bac9-4ac5-b669-1e49d9da7c2b}, !- Handle
  ,                                       !- Do Zone Sizing Calculation
  ,                                       !- Do System Sizing Calculation
  ,                                       !- Do Plant Sizing Calculation
  No,                                     !- Run Simulation for Sizing Periods
  ;                                       !- Run Simulation for Weather File Run Periods

OS:Timestep,
  {4ebc9f1e-4707-402e-9844-67eb1ffbd522}, !- Handle
  6;                                      !- Number of Timesteps per Hour

OS:RunPeriod,
  {28df894d-6af9-4fb8-8f56-df1753344aa3}, !- Handle
  Run Period,                             !- Name
  1,                                      !- Begin Month
  1,                                      !- Begin Day of Month
  12,                                     !- End Month
  31,                                     !- End Day of Month
  ,                                       !- Use Weather File Holidays and Special Days
  ,                                       !- Use Weather File Daylight Saving Period
  ,                                       !- Apply Weekend Holiday Rule
  ,                                       !- Use Weather File Rain Indicators
  ,                                       !- Use Weather File Snow Indicators
  ;                                       !- Number of Times Runperiod to be Repeated

OS:Sizing:Parameters,
  {dde5af6f-7923-4600-a28a-7556673a0266}, !- Handle
  1.0,                                    !- Heating Sizing Factor
  1.0;                                    !- Cooling Sizing Factor

OS:ShadowCalculation,
  {ca758bea-4416-4626-9bba-3d8795c79bd6}, !- Handle
  20,                                     !- Calculation Frequency
  200;                                    !- Maximum Figures in Shadow Overlap Calculations

OS:SurfaceConvectionAlgorithm:Inside,
  {aaabfc36-718a-4ab0-b622-f186ebb45230}, !- Handle
  TARP;                                   !- Algorithm

OS:SurfaceConvectionAlgorithm:Outside,
  {9a0a9f6f-4bbd-4b12-a121-9492a1fcd7d6}, !- Handle
  DOE-2;                                  !- Algorithm

OS:HeatBalanceAlgorithm,
  {9d93e563-e1e0-46d7-9e39-d1c8aceb7212}, !- Handle
  ConductionTransferFunction,             !- Algorithm
  200;                                    !- Surface Temperature Upper Limit {C}

OS:ZoneCapacitanceMultiplier:ResearchSpecial,
  {6bfced16-b16f-47f6-8223-f7e267d75d19}, !- Handle
  ,                                       !- Temperature Capacity Multiplier
  15,                                     !- Humidity Capacity Multiplier
  ;                                       !- Carbon Dioxide Capacity Multiplier

OS:ThermalZone,
  {9be30973-6917-4f25-8af3-fc4d594f2d82}, !- Handle
  living zone,                            !- Name
  ,                                       !- Multiplier
  ,                                       !- Ceiling Height {m}
  ,                                       !- Volume {m3}
  ,                                       !- Floor Area {m2}
  ,                                       !- Zone Inside Convection Algorithm
  ,                                       !- Zone Outside Convection Algorithm
  ,                                       !- Zone Conditioning Equipment List Name
  {e5c85f5c-b2a0-4705-9d2d-b289f5992e49}, !- Zone Air Inlet Port List
  {4581513c-3ded-41dc-aca3-4da0d3e83657}, !- Zone Air Exhaust Port List
  {53815aa8-0ec3-473b-ba69-9e359ca727ae}, !- Zone Air Node Name
  ,                                       !- Zone Return Air Node Name
  ,                                       !- Primary Daylighting Control Name
  ,                                       !- Fraction of Zone Controlled by Primary Daylighting Control
  ,                                       !- Secondary Daylighting Control Name
  ,                                       !- Fraction of Zone Controlled by Secondary Daylighting Control
  ,                                       !- Illuminance Map Name
  ,                                       !- Group Rendering Name
  ,                                       !- Thermostat Name
  No;                                     !- Use Ideal Air Loads

OS:Node,
  {572d7e91-52a0-4cbf-b7bd-a32d4dc4387f}, !- Handle
  Node 1,                                 !- Name
  {53815aa8-0ec3-473b-ba69-9e359ca727ae}, !- Inlet Port
  ;                                       !- Outlet Port

OS:Connection,
  {53815aa8-0ec3-473b-ba69-9e359ca727ae}, !- Handle
  {12b772a4-37b6-4052-bf93-16815b4b18a7}, !- Name
  {9be30973-6917-4f25-8af3-fc4d594f2d82}, !- Source Object
  11,                                     !- Outlet Port
  {572d7e91-52a0-4cbf-b7bd-a32d4dc4387f}, !- Target Object
  2;                                      !- Inlet Port

OS:PortList,
  {e5c85f5c-b2a0-4705-9d2d-b289f5992e49}, !- Handle
  {aa04c20e-5fc7-4681-8336-154bd0a30737}, !- Name
  {9be30973-6917-4f25-8af3-fc4d594f2d82}; !- HVAC Component

OS:PortList,
  {4581513c-3ded-41dc-aca3-4da0d3e83657}, !- Handle
  {1c565c80-6407-4411-91fc-055450f064ee}, !- Name
  {9be30973-6917-4f25-8af3-fc4d594f2d82}; !- HVAC Component

OS:Sizing:Zone,
  {3941158c-c18a-4890-bc64-330ed4b21a47}, !- Handle
  {9be30973-6917-4f25-8af3-fc4d594f2d82}, !- Zone or ZoneList Name
  SupplyAirTemperature,                   !- Zone Cooling Design Supply Air Temperature Input Method
  14,                                     !- Zone Cooling Design Supply Air Temperature {C}
  11.11,                                  !- Zone Cooling Design Supply Air Temperature Difference {deltaC}
  SupplyAirTemperature,                   !- Zone Heating Design Supply Air Temperature Input Method
  40,                                     !- Zone Heating Design Supply Air Temperature {C}
  11.11,                                  !- Zone Heating Design Supply Air Temperature Difference {deltaC}
  0.0085,                                 !- Zone Cooling Design Supply Air Humidity Ratio {kg-H2O/kg-air}
  0.008,                                  !- Zone Heating Design Supply Air Humidity Ratio {kg-H2O/kg-air}
  ,                                       !- Zone Heating Sizing Factor
  ,                                       !- Zone Cooling Sizing Factor
  DesignDay,                              !- Cooling Design Air Flow Method
  ,                                       !- Cooling Design Air Flow Rate {m3/s}
  ,                                       !- Cooling Minimum Air Flow per Zone Floor Area {m3/s-m2}
  ,                                       !- Cooling Minimum Air Flow {m3/s}
  ,                                       !- Cooling Minimum Air Flow Fraction
  DesignDay,                              !- Heating Design Air Flow Method
  ,                                       !- Heating Design Air Flow Rate {m3/s}
  ,                                       !- Heating Maximum Air Flow per Zone Floor Area {m3/s-m2}
  ,                                       !- Heating Maximum Air Flow {m3/s}
  ,                                       !- Heating Maximum Air Flow Fraction
  ,                                       !- Design Zone Air Distribution Effectiveness in Cooling Mode
  ,                                       !- Design Zone Air Distribution Effectiveness in Heating Mode
  No,                                     !- Account for Dedicated Outdoor Air System
  NeutralSupplyAir,                       !- Dedicated Outdoor Air System Control Strategy
  autosize,                               !- Dedicated Outdoor Air Low Setpoint Temperature for Design {C}
  autosize;                               !- Dedicated Outdoor Air High Setpoint Temperature for Design {C}

OS:ZoneHVAC:EquipmentList,
  {6662239b-248c-418d-917c-00b50cb6adeb}, !- Handle
  Zone HVAC Equipment List 1,             !- Name
  {9be30973-6917-4f25-8af3-fc4d594f2d82}; !- Thermal Zone

OS:Space,
  {4b5de3c8-654c-47c3-a8b4-6325e71f67ca}, !- Handle
  living space,                           !- Name
  ,                                       !- Space Type Name
  ,                                       !- Default Construction Set Name
  ,                                       !- Default Schedule Set Name
  -0,                                     !- Direction of Relative North {deg}
  0,                                      !- X Origin {m}
  0,                                      !- Y Origin {m}
  0,                                      !- Z Origin {m}
  ,                                       !- Building Story Name
  {9be30973-6917-4f25-8af3-fc4d594f2d82}, !- Thermal Zone Name
  ,                                       !- Part of Total Floor Area
  ,                                       !- Design Specification Outdoor Air Object Name
  {0853521b-f1e3-4a81-80d4-22819807e451}; !- Building Unit Name

OS:Surface,
  {ce0908e6-2565-449e-9176-70c0d52bea19}, !- Handle
  Surface 1,                              !- Name
  Floor,                                  !- Surface Type
  ,                                       !- Construction Name
  {4b5de3c8-654c-47c3-a8b4-6325e71f67ca}, !- Space Name
  Ground,                                 !- Outside Boundary Condition
  ,                                       !- Outside Boundary Condition Object
  NoSun,                                  !- Sun Exposure
  NoWind,                                 !- Wind Exposure
  ,                                       !- View Factor to Ground
  ,                                       !- Number of Vertices
  0, 0, 0,                                !- X,Y,Z Vertex 1 {m}
  0, 6.81553519541936, 0,                 !- X,Y,Z Vertex 2 {m}
  13.6310703908387, 6.81553519541936, 0,  !- X,Y,Z Vertex 3 {m}
  13.6310703908387, 0, 0;                 !- X,Y,Z Vertex 4 {m}

OS:Surface,
  {37ceb7b6-0994-45ed-8d3a-d1507bedc76f}, !- Handle
  Surface 2,                              !- Name
  Wall,                                   !- Surface Type
  {33999c50-09ea-4a75-b924-cef369ab3a75}, !- Construction Name
  {4b5de3c8-654c-47c3-a8b4-6325e71f67ca}, !- Space Name
  Outdoors,                               !- Outside Boundary Condition
  ,                                       !- Outside Boundary Condition Object
  SunExposed,                             !- Sun Exposure
  WindExposed,                            !- Wind Exposure
  ,                                       !- View Factor to Ground
  ,                                       !- Number of Vertices
  0, 6.81553519541936, 2.4384,            !- X,Y,Z Vertex 1 {m}
  0, 6.81553519541936, 0,                 !- X,Y,Z Vertex 2 {m}
  0, 0, 0,                                !- X,Y,Z Vertex 3 {m}
  0, 0, 2.4384;                           !- X,Y,Z Vertex 4 {m}

OS:Surface,
  {a2039465-60de-40f5-a78a-b93ad84b9f07}, !- Handle
  Surface 3,                              !- Name
  Wall,                                   !- Surface Type
  {33999c50-09ea-4a75-b924-cef369ab3a75}, !- Construction Name
  {4b5de3c8-654c-47c3-a8b4-6325e71f67ca}, !- Space Name
  Outdoors,                               !- Outside Boundary Condition
  ,                                       !- Outside Boundary Condition Object
  SunExposed,                             !- Sun Exposure
  WindExposed,                            !- Wind Exposure
  ,                                       !- View Factor to Ground
  ,                                       !- Number of Vertices
  13.6310703908387, 6.81553519541936, 2.4384, !- X,Y,Z Vertex 1 {m}
  13.6310703908387, 6.81553519541936, 0,  !- X,Y,Z Vertex 2 {m}
  0, 6.81553519541936, 0,                 !- X,Y,Z Vertex 3 {m}
  0, 6.81553519541936, 2.4384;            !- X,Y,Z Vertex 4 {m}

OS:Surface,
  {96c9245e-af57-4025-ba89-591ed4b78583}, !- Handle
  Surface 4,                              !- Name
  Wall,                                   !- Surface Type
  {33999c50-09ea-4a75-b924-cef369ab3a75}, !- Construction Name
  {4b5de3c8-654c-47c3-a8b4-6325e71f67ca}, !- Space Name
  Outdoors,                               !- Outside Boundary Condition
  ,                                       !- Outside Boundary Condition Object
  SunExposed,                             !- Sun Exposure
  WindExposed,                            !- Wind Exposure
  ,                                       !- View Factor to Ground
  ,                                       !- Number of Vertices
  13.6310703908387, 0, 2.4384,            !- X,Y,Z Vertex 1 {m}
  13.6310703908387, 0, 0,                 !- X,Y,Z Vertex 2 {m}
  13.6310703908387, 6.81553519541936, 0,  !- X,Y,Z Vertex 3 {m}
  13.6310703908387, 6.81553519541936, 2.4384; !- X,Y,Z Vertex 4 {m}

OS:Surface,
  {7be85f80-f92f-431d-800b-908655769c00}, !- Handle
  Surface 5,                              !- Name
  Wall,                                   !- Surface Type
  {33999c50-09ea-4a75-b924-cef369ab3a75}, !- Construction Name
  {4b5de3c8-654c-47c3-a8b4-6325e71f67ca}, !- Space Name
  Outdoors,                               !- Outside Boundary Condition
  ,                                       !- Outside Boundary Condition Object
  SunExposed,                             !- Sun Exposure
  WindExposed,                            !- Wind Exposure
  ,                                       !- View Factor to Ground
  ,                                       !- Number of Vertices
  0, 0, 2.4384,                           !- X,Y,Z Vertex 1 {m}
  0, 0, 0,                                !- X,Y,Z Vertex 2 {m}
  13.6310703908387, 0, 0,                 !- X,Y,Z Vertex 3 {m}
  13.6310703908387, 0, 2.4384;            !- X,Y,Z Vertex 4 {m}

OS:Surface,
  {0e54a04f-f051-4546-b490-06544ef82382}, !- Handle
  Surface 6,                              !- Name
  RoofCeiling,                            !- Surface Type
  {bc4caa2e-d8cd-4cca-89b1-01f2cbfe0ddc}, !- Construction Name
  {4b5de3c8-654c-47c3-a8b4-6325e71f67ca}, !- Space Name
  Surface,                                !- Outside Boundary Condition
  {4c63c660-4a01-4dcb-995c-8793967096e4}, !- Outside Boundary Condition Object
  NoSun,                                  !- Sun Exposure
  NoWind,                                 !- Wind Exposure
  ,                                       !- View Factor to Ground
  ,                                       !- Number of Vertices
  13.6310703908387, 0, 2.4384,            !- X,Y,Z Vertex 1 {m}
  13.6310703908387, 6.81553519541936, 2.4384, !- X,Y,Z Vertex 2 {m}
  0, 6.81553519541936, 2.4384,            !- X,Y,Z Vertex 3 {m}
  0, 0, 2.4384;                           !- X,Y,Z Vertex 4 {m}

OS:Space,
  {23ac29e6-9f51-46fc-bd0c-1d5fc63b34bd}, !- Handle
  living space|story 2,                   !- Name
  ,                                       !- Space Type Name
  ,                                       !- Default Construction Set Name
  ,                                       !- Default Schedule Set Name
  -0,                                     !- Direction of Relative North {deg}
  0,                                      !- X Origin {m}
  0,                                      !- Y Origin {m}
  2.4384,                                 !- Z Origin {m}
  ,                                       !- Building Story Name
  {9be30973-6917-4f25-8af3-fc4d594f2d82}, !- Thermal Zone Name
  ,                                       !- Part of Total Floor Area
  ,                                       !- Design Specification Outdoor Air Object Name
  {0853521b-f1e3-4a81-80d4-22819807e451}; !- Building Unit Name

OS:Surface,
  {4c63c660-4a01-4dcb-995c-8793967096e4}, !- Handle
  Surface 7,                              !- Name
  Floor,                                  !- Surface Type
  {bc4caa2e-d8cd-4cca-89b1-01f2cbfe0ddc}, !- Construction Name
  {23ac29e6-9f51-46fc-bd0c-1d5fc63b34bd}, !- Space Name
  Surface,                                !- Outside Boundary Condition
  {0e54a04f-f051-4546-b490-06544ef82382}, !- Outside Boundary Condition Object
  NoSun,                                  !- Sun Exposure
  NoWind,                                 !- Wind Exposure
  ,                                       !- View Factor to Ground
  ,                                       !- Number of Vertices
  0, 0, 0,                                !- X,Y,Z Vertex 1 {m}
  0, 6.81553519541936, 0,                 !- X,Y,Z Vertex 2 {m}
  13.6310703908387, 6.81553519541936, 0,  !- X,Y,Z Vertex 3 {m}
  13.6310703908387, 0, 0;                 !- X,Y,Z Vertex 4 {m}

OS:Surface,
  {6a73b813-17a4-4358-b61d-3c25c070fa2c}, !- Handle
  Surface 8,                              !- Name
  Wall,                                   !- Surface Type
  {33999c50-09ea-4a75-b924-cef369ab3a75}, !- Construction Name
  {23ac29e6-9f51-46fc-bd0c-1d5fc63b34bd}, !- Space Name
  Outdoors,                               !- Outside Boundary Condition
  ,                                       !- Outside Boundary Condition Object
  SunExposed,                             !- Sun Exposure
  WindExposed,                            !- Wind Exposure
  ,                                       !- View Factor to Ground
  ,                                       !- Number of Vertices
  0, 6.81553519541936, 2.4384,            !- X,Y,Z Vertex 1 {m}
  0, 6.81553519541936, 0,                 !- X,Y,Z Vertex 2 {m}
  0, 0, 0,                                !- X,Y,Z Vertex 3 {m}
  0, 0, 2.4384;                           !- X,Y,Z Vertex 4 {m}

OS:Surface,
  {d290e027-a3ac-44f0-b407-81bbc5f4f0e6}, !- Handle
  Surface 9,                              !- Name
  Wall,                                   !- Surface Type
  {33999c50-09ea-4a75-b924-cef369ab3a75}, !- Construction Name
  {23ac29e6-9f51-46fc-bd0c-1d5fc63b34bd}, !- Space Name
  Outdoors,                               !- Outside Boundary Condition
  ,                                       !- Outside Boundary Condition Object
  SunExposed,                             !- Sun Exposure
  WindExposed,                            !- Wind Exposure
  ,                                       !- View Factor to Ground
  ,                                       !- Number of Vertices
  13.6310703908387, 6.81553519541936, 2.4384, !- X,Y,Z Vertex 1 {m}
  13.6310703908387, 6.81553519541936, 0,  !- X,Y,Z Vertex 2 {m}
  0, 6.81553519541936, 0,                 !- X,Y,Z Vertex 3 {m}
  0, 6.81553519541936, 2.4384;            !- X,Y,Z Vertex 4 {m}

OS:Surface,
  {85d1ec61-5609-4c96-8d32-c44f5c3d2d14}, !- Handle
  Surface 10,                             !- Name
  Wall,                                   !- Surface Type
  {33999c50-09ea-4a75-b924-cef369ab3a75}, !- Construction Name
  {23ac29e6-9f51-46fc-bd0c-1d5fc63b34bd}, !- Space Name
  Outdoors,                               !- Outside Boundary Condition
  ,                                       !- Outside Boundary Condition Object
  SunExposed,                             !- Sun Exposure
  WindExposed,                            !- Wind Exposure
  ,                                       !- View Factor to Ground
  ,                                       !- Number of Vertices
  13.6310703908387, 0, 2.4384,            !- X,Y,Z Vertex 1 {m}
  13.6310703908387, 0, 0,                 !- X,Y,Z Vertex 2 {m}
  13.6310703908387, 6.81553519541936, 0,  !- X,Y,Z Vertex 3 {m}
  13.6310703908387, 6.81553519541936, 2.4384; !- X,Y,Z Vertex 4 {m}

OS:Surface,
  {f133c4ce-4505-4397-b4af-241666bae84c}, !- Handle
  Surface 11,                             !- Name
  Wall,                                   !- Surface Type
  {33999c50-09ea-4a75-b924-cef369ab3a75}, !- Construction Name
  {23ac29e6-9f51-46fc-bd0c-1d5fc63b34bd}, !- Space Name
  Outdoors,                               !- Outside Boundary Condition
  ,                                       !- Outside Boundary Condition Object
  SunExposed,                             !- Sun Exposure
  WindExposed,                            !- Wind Exposure
  ,                                       !- View Factor to Ground
  ,                                       !- Number of Vertices
  0, 0, 2.4384,                           !- X,Y,Z Vertex 1 {m}
  0, 0, 0,                                !- X,Y,Z Vertex 2 {m}
  13.6310703908387, 0, 0,                 !- X,Y,Z Vertex 3 {m}
  13.6310703908387, 0, 2.4384;            !- X,Y,Z Vertex 4 {m}

OS:Surface,
  {5093738d-909c-4884-9fe3-62cf68e21bbc}, !- Handle
  Surface 12,                             !- Name
  RoofCeiling,                            !- Surface Type
  {05c9f49b-08da-47e3-bd0d-19ef05fb93d4}, !- Construction Name
  {23ac29e6-9f51-46fc-bd0c-1d5fc63b34bd}, !- Space Name
  Surface,                                !- Outside Boundary Condition
  {a11a412c-015a-4d85-a17e-31401a967740}, !- Outside Boundary Condition Object
  NoSun,                                  !- Sun Exposure
  NoWind,                                 !- Wind Exposure
  ,                                       !- View Factor to Ground
  ,                                       !- Number of Vertices
  13.6310703908387, 0, 2.4384,            !- X,Y,Z Vertex 1 {m}
  13.6310703908387, 6.81553519541936, 2.4384, !- X,Y,Z Vertex 2 {m}
  0, 6.81553519541936, 2.4384,            !- X,Y,Z Vertex 3 {m}
  0, 0, 2.4384;                           !- X,Y,Z Vertex 4 {m}

OS:Surface,
  {a11a412c-015a-4d85-a17e-31401a967740}, !- Handle
  Surface 13,                             !- Name
  Floor,                                  !- Surface Type
  {b9b70ba6-ce83-400c-a5f0-b173c8d371f8}, !- Construction Name
  {16cdef8e-e8a1-4897-bc49-892df883bf6d}, !- Space Name
  Surface,                                !- Outside Boundary Condition
  {5093738d-909c-4884-9fe3-62cf68e21bbc}, !- Outside Boundary Condition Object
  NoSun,                                  !- Sun Exposure
  NoWind,                                 !- Wind Exposure
  ,                                       !- View Factor to Ground
  ,                                       !- Number of Vertices
  0, 6.81553519541936, 0,                 !- X,Y,Z Vertex 1 {m}
  13.6310703908387, 6.81553519541936, 0,  !- X,Y,Z Vertex 2 {m}
  13.6310703908387, 0, 0,                 !- X,Y,Z Vertex 3 {m}
  0, 0, 0;                                !- X,Y,Z Vertex 4 {m}

OS:Surface,
  {091100cb-d204-4071-b8af-abb6510df76f}, !- Handle
  Surface 14,                             !- Name
  RoofCeiling,                            !- Surface Type
  {84036cf8-e4be-4963-8dda-4891a03487ae}, !- Construction Name
  {16cdef8e-e8a1-4897-bc49-892df883bf6d}, !- Space Name
  Outdoors,                               !- Outside Boundary Condition
  ,                                       !- Outside Boundary Condition Object
  SunExposed,                             !- Sun Exposure
  WindExposed,                            !- Wind Exposure
  ,                                       !- View Factor to Ground
  ,                                       !- Number of Vertices
  13.6310703908387, 3.40776759770968, 1.70388379885484, !- X,Y,Z Vertex 1 {m}
  0, 3.40776759770968, 1.70388379885484,  !- X,Y,Z Vertex 2 {m}
  0, 0, 0,                                !- X,Y,Z Vertex 3 {m}
  13.6310703908387, 0, 0;                 !- X,Y,Z Vertex 4 {m}

OS:Surface,
  {ddf1180c-945f-4b0c-8098-e20cdad67848}, !- Handle
  Surface 15,                             !- Name
  RoofCeiling,                            !- Surface Type
  {84036cf8-e4be-4963-8dda-4891a03487ae}, !- Construction Name
  {16cdef8e-e8a1-4897-bc49-892df883bf6d}, !- Space Name
  Outdoors,                               !- Outside Boundary Condition
  ,                                       !- Outside Boundary Condition Object
  SunExposed,                             !- Sun Exposure
  WindExposed,                            !- Wind Exposure
  ,                                       !- View Factor to Ground
  ,                                       !- Number of Vertices
  0, 3.40776759770968, 1.70388379885484,  !- X,Y,Z Vertex 1 {m}
  13.6310703908387, 3.40776759770968, 1.70388379885484, !- X,Y,Z Vertex 2 {m}
  13.6310703908387, 6.81553519541936, 0,  !- X,Y,Z Vertex 3 {m}
  0, 6.81553519541936, 0;                 !- X,Y,Z Vertex 4 {m}

OS:Surface,
  {0f5a9490-069e-432d-87ea-da04c7b5fd0c}, !- Handle
  Surface 16,                             !- Name
  Wall,                                   !- Surface Type
  {db9448c9-6dd5-48af-8ef1-4f67207c1112}, !- Construction Name
  {16cdef8e-e8a1-4897-bc49-892df883bf6d}, !- Space Name
  Outdoors,                               !- Outside Boundary Condition
  ,                                       !- Outside Boundary Condition Object
  SunExposed,                             !- Sun Exposure
  WindExposed,                            !- Wind Exposure
  ,                                       !- View Factor to Ground
  ,                                       !- Number of Vertices
  0, 3.40776759770968, 1.70388379885484,  !- X,Y,Z Vertex 1 {m}
  0, 6.81553519541936, 0,                 !- X,Y,Z Vertex 2 {m}
  0, 0, 0;                                !- X,Y,Z Vertex 3 {m}

OS:Surface,
  {e9c29a31-c5b6-49e3-b521-5d8fe0d34271}, !- Handle
  Surface 17,                             !- Name
  Wall,                                   !- Surface Type
  {db9448c9-6dd5-48af-8ef1-4f67207c1112}, !- Construction Name
  {16cdef8e-e8a1-4897-bc49-892df883bf6d}, !- Space Name
  Outdoors,                               !- Outside Boundary Condition
  ,                                       !- Outside Boundary Condition Object
  SunExposed,                             !- Sun Exposure
  WindExposed,                            !- Wind Exposure
  ,                                       !- View Factor to Ground
  ,                                       !- Number of Vertices
  13.6310703908387, 3.40776759770968, 1.70388379885484, !- X,Y,Z Vertex 1 {m}
  13.6310703908387, 0, 0,                 !- X,Y,Z Vertex 2 {m}
  13.6310703908387, 6.81553519541936, 0;  !- X,Y,Z Vertex 3 {m}

OS:Space,
  {16cdef8e-e8a1-4897-bc49-892df883bf6d}, !- Handle
  unfinished attic space,                 !- Name
  ,                                       !- Space Type Name
  ,                                       !- Default Construction Set Name
  ,                                       !- Default Schedule Set Name
  -0,                                     !- Direction of Relative North {deg}
  0,                                      !- X Origin {m}
  0,                                      !- Y Origin {m}
  4.8768,                                 !- Z Origin {m}
  ,                                       !- Building Story Name
  {c103ac55-d742-464d-9c35-711a27e461f9}, !- Thermal Zone Name
  ,                                       !- Part of Total Floor Area
  ,                                       !- Design Specification Outdoor Air Object Name
  {0853521b-f1e3-4a81-80d4-22819807e451}; !- Building Unit Name

OS:ThermalZone,
  {c103ac55-d742-464d-9c35-711a27e461f9}, !- Handle
  unfinished attic zone,                  !- Name
  ,                                       !- Multiplier
  ,                                       !- Ceiling Height {m}
  ,                                       !- Volume {m3}
  ,                                       !- Floor Area {m2}
  ,                                       !- Zone Inside Convection Algorithm
  ,                                       !- Zone Outside Convection Algorithm
  ,                                       !- Zone Conditioning Equipment List Name
  {a5d9408f-dfab-4bb2-a4af-1c46afaa5299}, !- Zone Air Inlet Port List
  {18dca521-fc5c-45c5-916d-c89b75fb3d42}, !- Zone Air Exhaust Port List
  {beff9678-b76e-47d1-bbf3-8e8d281145c6}, !- Zone Air Node Name
  ,                                       !- Zone Return Air Node Name
  ,                                       !- Primary Daylighting Control Name
  ,                                       !- Fraction of Zone Controlled by Primary Daylighting Control
  ,                                       !- Secondary Daylighting Control Name
  ,                                       !- Fraction of Zone Controlled by Secondary Daylighting Control
  ,                                       !- Illuminance Map Name
  ,                                       !- Group Rendering Name
  ,                                       !- Thermostat Name
  No;                                     !- Use Ideal Air Loads

OS:Node,
  {c4449d45-1a8a-448e-bfe4-db80772a0554}, !- Handle
  Node 2,                                 !- Name
  {beff9678-b76e-47d1-bbf3-8e8d281145c6}, !- Inlet Port
  ;                                       !- Outlet Port

OS:Connection,
  {beff9678-b76e-47d1-bbf3-8e8d281145c6}, !- Handle
  {f0662135-c71c-423b-9d25-af69e1f54644}, !- Name
  {c103ac55-d742-464d-9c35-711a27e461f9}, !- Source Object
  11,                                     !- Outlet Port
  {c4449d45-1a8a-448e-bfe4-db80772a0554}, !- Target Object
  2;                                      !- Inlet Port

OS:PortList,
  {a5d9408f-dfab-4bb2-a4af-1c46afaa5299}, !- Handle