!- NOTE: Auto-generated from /test/osw_files/SFD_2000sqft_2story_SL_FA_AllLayersButExteriorFinish.osw

OS:Version,
  {c2b27ae9-6ceb-40d1-aa91-078979c12d71}, !- Handle
  2.3.1;                                  !- Version Identifier

OS:Building,
  {bf305633-c5a1-4881-9edf-ca5e1a8e1274}, !- Handle
  Building,                               !- Name
  ,                                       !- Building Sector Type
  ,                                       !- North Axis {deg}
  ,                                       !- Nominal Floor to Floor Height {m}
  ,                                       !- Space Type Name
  ,                                       !- Default Construction Set Name
  ,                                       !- Default Schedule Set Name
  3,                                      !- Standards Number of Stories
  3,                                      !- Standards Number of Above Ground Stories
  singlefamilydetached,                   !- Standards Building Type
  1;                                      !- Standards Number of Living Units

OS:YearDescription,
  {513d8dda-86cb-442a-b01c-1f7f0e0ac70e}; !- Handle

OS:SimulationControl,
  {2c487a4c-bac9-4ac5-b669-1e49d9da7c2b}, !- Handle
  ,                                       !- Do Zone Sizing Calculation
  ,                                       !- Do System Sizing Calculation
  ,                                       !- Do Plant Sizing Calculation
  No,                                     !- Run Simulation for Sizing Periods
  ;                                       !- Run Simulation for Weather File Run Periods

OS:Timestep,
  {4ebc9f1e-4707-402e-9844-67eb1ffbd522}, !- Handle
  6;                                      !- Number of Timesteps per Hour

OS:RunPeriod,
  {28df894d-6af9-4fb8-8f56-df1753344aa3}, !- Handle
  Run Period,                             !- Name
  1,                                      !- Begin Month
  1,                                      !- Begin Day of Month
  12,                                     !- End Month
  31,                                     !- End Day of Month
  ,                                       !- Use Weather File Holidays and Special Days
  ,                                       !- Use Weather File Daylight Saving Period
  ,                                       !- Apply Weekend Holiday Rule
  ,                                       !- Use Weather File Rain Indicators
  ,                                       !- Use Weather File Snow Indicators
  ;                                       !- Number of Times Runperiod to be Repeated

OS:Sizing:Parameters,
  {dde5af6f-7923-4600-a28a-7556673a0266}, !- Handle
  1.0,                                    !- Heating Sizing Factor
  1.0;                                    !- Cooling Sizing Factor

OS:ShadowCalculation,
  {ca758bea-4416-4626-9bba-3d8795c79bd6}, !- Handle
  20,                                     !- Calculation Frequency
  200;                                    !- Maximum Figures in Shadow Overlap Calculations

OS:SurfaceConvectionAlgorithm:Inside,
  {aaabfc36-718a-4ab0-b622-f186ebb45230}, !- Handle
  TARP;                                   !- Algorithm

OS:SurfaceConvectionAlgorithm:Outside,
  {9a0a9f6f-4bbd-4b12-a121-9492a1fcd7d6}, !- Handle
  DOE-2;                                  !- Algorithm

OS:HeatBalanceAlgorithm,
  {9d93e563-e1e0-46d7-9e39-d1c8aceb7212}, !- Handle
  ConductionTransferFunction,             !- Algorithm
  200;                                    !- Surface Temperature Upper Limit {C}

OS:ZoneCapacitanceMultiplier:ResearchSpecial,
  {6bfced16-b16f-47f6-8223-f7e267d75d19}, !- Handle
  ,                                       !- Temperature Capacity Multiplier
  15,                                     !- Humidity Capacity Multiplier
  ;                                       !- Carbon Dioxide Capacity Multiplier

OS:ThermalZone,
  {c364e9c1-07f7-400d-8b72-e92441701c9f}, !- Handle
  living zone,                            !- Name
  ,                                       !- Multiplier
  ,                                       !- Ceiling Height {m}
  ,                                       !- Volume {m3}
  ,                                       !- Floor Area {m2}
  ,                                       !- Zone Inside Convection Algorithm
  ,                                       !- Zone Outside Convection Algorithm
  ,                                       !- Zone Conditioning Equipment List Name
  {c04ae378-020b-4cd4-bd6d-baf016786106}, !- Zone Air Inlet Port List
  {305fd889-4ae9-46fc-9ed1-5db811cd2572}, !- Zone Air Exhaust Port List
  {e1fc59ea-1e4c-4528-ae51-5eb09d6d2970}, !- Zone Air Node Name
  ,                                       !- Zone Return Air Node Name
  ,                                       !- Primary Daylighting Control Name
  ,                                       !- Fraction of Zone Controlled by Primary Daylighting Control
  ,                                       !- Secondary Daylighting Control Name
  ,                                       !- Fraction of Zone Controlled by Secondary Daylighting Control
  ,                                       !- Illuminance Map Name
  ,                                       !- Group Rendering Name
  ,                                       !- Thermostat Name
  No;                                     !- Use Ideal Air Loads

OS:Node,
  {a289220f-432b-454b-a648-3a3d08a5fcbc}, !- Handle
  Node 1,                                 !- Name
  {e1fc59ea-1e4c-4528-ae51-5eb09d6d2970}, !- Inlet Port
  ;                                       !- Outlet Port

OS:Connection,
  {e1fc59ea-1e4c-4528-ae51-5eb09d6d2970}, !- Handle
  {e45f194f-7c05-4629-9b0b-52d293d68ec7}, !- Name
  {c364e9c1-07f7-400d-8b72-e92441701c9f}, !- Source Object
  11,                                     !- Outlet Port
  {a289220f-432b-454b-a648-3a3d08a5fcbc}, !- Target Object
  2;                                      !- Inlet Port

OS:PortList,
  {c04ae378-020b-4cd4-bd6d-baf016786106}, !- Handle
  {d72db03b-8b7e-42c9-8572-9d0c0a492759}, !- Name
  {c364e9c1-07f7-400d-8b72-e92441701c9f}; !- HVAC Component

OS:PortList,
  {305fd889-4ae9-46fc-9ed1-5db811cd2572}, !- Handle
  {b7a779db-0930-4a96-8548-23d703a8958b}, !- Name
  {c364e9c1-07f7-400d-8b72-e92441701c9f}; !- HVAC Component

OS:Sizing:Zone,
  {9b0a52f3-4826-44c0-8f74-91dfc4ffb5bb}, !- Handle
  {c364e9c1-07f7-400d-8b72-e92441701c9f}, !- Zone or ZoneList Name
  SupplyAirTemperature,                   !- Zone Cooling Design Supply Air Temperature Input Method
  14,                                     !- Zone Cooling Design Supply Air Temperature {C}
  11.11,                                  !- Zone Cooling Design Supply Air Temperature Difference {deltaC}
  SupplyAirTemperature,                   !- Zone Heating Design Supply Air Temperature Input Method
  40,                                     !- Zone Heating Design Supply Air Temperature {C}
  11.11,                                  !- Zone Heating Design Supply Air Temperature Difference {deltaC}
  0.0085,                                 !- Zone Cooling Design Supply Air Humidity Ratio {kg-H2O/kg-air}
  0.008,                                  !- Zone Heating Design Supply Air Humidity Ratio {kg-H2O/kg-air}
  ,                                       !- Zone Heating Sizing Factor
  ,                                       !- Zone Cooling Sizing Factor
  DesignDay,                              !- Cooling Design Air Flow Method
  ,                                       !- Cooling Design Air Flow Rate {m3/s}
  ,                                       !- Cooling Minimum Air Flow per Zone Floor Area {m3/s-m2}
  ,                                       !- Cooling Minimum Air Flow {m3/s}
  ,                                       !- Cooling Minimum Air Flow Fraction
  DesignDay,                              !- Heating Design Air Flow Method
  ,                                       !- Heating Design Air Flow Rate {m3/s}
  ,                                       !- Heating Maximum Air Flow per Zone Floor Area {m3/s-m2}
  ,                                       !- Heating Maximum Air Flow {m3/s}
  ,                                       !- Heating Maximum Air Flow Fraction
  ,                                       !- Design Zone Air Distribution Effectiveness in Cooling Mode
  ,                                       !- Design Zone Air Distribution Effectiveness in Heating Mode
  No,                                     !- Account for Dedicated Outdoor Air System
  NeutralSupplyAir,                       !- Dedicated Outdoor Air System Control Strategy
  autosize,                               !- Dedicated Outdoor Air Low Setpoint Temperature for Design {C}
  autosize;                               !- Dedicated Outdoor Air High Setpoint Temperature for Design {C}

OS:ZoneHVAC:EquipmentList,
  {b82a3845-e16b-4cd2-a260-4a8f4053072f}, !- Handle
  Zone HVAC Equipment List 1,             !- Name
  {c364e9c1-07f7-400d-8b72-e92441701c9f}; !- Thermal Zone

OS:Space,
  {c50d84ea-073d-44df-a71a-7d77a7a90700}, !- Handle
  living space,                           !- Name
  ,                                       !- Space Type Name
  ,                                       !- Default Construction Set Name
  ,                                       !- Default Schedule Set Name
  -0,                                     !- Direction of Relative North {deg}
  0,                                      !- X Origin {m}
  0,                                      !- Y Origin {m}
  0,                                      !- Z Origin {m}
  ,                                       !- Building Story Name
  {c364e9c1-07f7-400d-8b72-e92441701c9f}, !- Thermal Zone Name
  ,                                       !- Part of Total Floor Area
  ,                                       !- Design Specification Outdoor Air Object Name
  {17d76482-8081-40e2-b2ea-1d4b22c785c6}; !- Building Unit Name

OS:Surface,
  {7997d8f8-0bd7-41e2-80d8-5b4970ab3235}, !- Handle
  Surface 1,                              !- Name
  Floor,                                  !- Surface Type
  ,                                       !- Construction Name
  {c50d84ea-073d-44df-a71a-7d77a7a90700}, !- Space Name
  Ground,                                 !- Outside Boundary Condition
  ,                                       !- Outside Boundary Condition Object
  NoSun,                                  !- Sun Exposure
  NoWind,                                 !- Wind Exposure
  ,                                       !- View Factor to Ground
  ,                                       !- Number of Vertices
  0, 0, 0,                                !- X,Y,Z Vertex 1 {m}
  0, 5.56486118425249, 0,                 !- X,Y,Z Vertex 2 {m}
  11.129722368505, 5.56486118425249, 0,   !- X,Y,Z Vertex 3 {m}
  11.129722368505, 0, 0;                  !- X,Y,Z Vertex 4 {m}

OS:Surface,
  {8eecff10-aaa4-42a6-be65-472a06b731a4}, !- Handle
  Surface 2,                              !- Name
  Wall,                                   !- Surface Type
  {3476d283-4d26-444b-8d8f-e481d4c81230}, !- Construction Name
  {c50d84ea-073d-44df-a71a-7d77a7a90700}, !- Space Name
  Outdoors,                               !- Outside Boundary Condition
  ,                                       !- Outside Boundary Condition Object
  SunExposed,                             !- Sun Exposure
  WindExposed,                            !- Wind Exposure
  ,                                       !- View Factor to Ground
  ,                                       !- Number of Vertices
  0, 5.56486118425249, 2.4384,            !- X,Y,Z Vertex 1 {m}
  0, 5.56486118425249, 0,                 !- X,Y,Z Vertex 2 {m}
  0, 0, 0,                                !- X,Y,Z Vertex 3 {m}
  0, 0, 2.4384;                           !- X,Y,Z Vertex 4 {m}

OS:Surface,
  {9ec4c3a1-1c55-473b-bcad-db55a1b9cad9}, !- Handle
  Surface 3,                              !- Name
  Wall,                                   !- Surface Type
  {3476d283-4d26-444b-8d8f-e481d4c81230}, !- Construction Name
  {c50d84ea-073d-44df-a71a-7d77a7a90700}, !- Space Name
  Outdoors,                               !- Outside Boundary Condition
  ,                                       !- Outside Boundary Condition Object
  SunExposed,                             !- Sun Exposure
  WindExposed,                            !- Wind Exposure
  ,                                       !- View Factor to Ground
  ,                                       !- Number of Vertices
  11.129722368505, 5.56486118425249, 2.4384, !- X,Y,Z Vertex 1 {m}
  11.129722368505, 5.56486118425249, 0,   !- X,Y,Z Vertex 2 {m}
  0, 5.56486118425249, 0,                 !- X,Y,Z Vertex 3 {m}
  0, 5.56486118425249, 2.4384;            !- X,Y,Z Vertex 4 {m}

OS:Surface,
  {ef1c5bab-b17a-4a31-8f04-890d972e0dd5}, !- Handle
  Surface 4,                              !- Name
  Wall,                                   !- Surface Type
  {3476d283-4d26-444b-8d8f-e481d4c81230}, !- Construction Name
  {c50d84ea-073d-44df-a71a-7d77a7a90700}, !- Space Name
  Outdoors,                               !- Outside Boundary Condition
  ,                                       !- Outside Boundary Condition Object
  SunExposed,                             !- Sun Exposure
  WindExposed,                            !- Wind Exposure
  ,                                       !- View Factor to Ground
  ,                                       !- Number of Vertices
  11.129722368505, 0, 2.4384,             !- X,Y,Z Vertex 1 {m}
  11.129722368505, 0, 0,                  !- X,Y,Z Vertex 2 {m}
  11.129722368505, 5.56486118425249, 0,   !- X,Y,Z Vertex 3 {m}
  11.129722368505, 5.56486118425249, 2.4384; !- X,Y,Z Vertex 4 {m}

OS:Surface,
  {3f04936d-e89e-416b-8789-ebac55dfeba9}, !- Handle
  Surface 5,                              !- Name
  Wall,                                   !- Surface Type
  {3476d283-4d26-444b-8d8f-e481d4c81230}, !- Construction Name
  {c50d84ea-073d-44df-a71a-7d77a7a90700}, !- Space Name
  Outdoors,                               !- Outside Boundary Condition
  ,                                       !- Outside Boundary Condition Object
  SunExposed,                             !- Sun Exposure
  WindExposed,                            !- Wind Exposure
  ,                                       !- View Factor to Ground
  ,                                       !- Number of Vertices
  0, 0, 2.4384,                           !- X,Y,Z Vertex 1 {m}
  0, 0, 0,                                !- X,Y,Z Vertex 2 {m}
  11.129722368505, 0, 0,                  !- X,Y,Z Vertex 3 {m}
  11.129722368505, 0, 2.4384;             !- X,Y,Z Vertex 4 {m}

OS:Surface,
  {24ffbfda-c70b-4a14-b040-f868b279a5b8}, !- Handle
  Surface 6,                              !- Name
  RoofCeiling,                            !- Surface Type
  ,                                       !- Construction Name
  {c50d84ea-073d-44df-a71a-7d77a7a90700}, !- Space Name
  Surface,                                !- Outside Boundary Condition
  {9e26496a-0032-4bf8-8d5a-20bf3dd4a222}, !- Outside Boundary Condition Object
  NoSun,                                  !- Sun Exposure
  NoWind,                                 !- Wind Exposure
  ,                                       !- View Factor to Ground
  ,                                       !- Number of Vertices
  11.129722368505, 0, 2.4384,             !- X,Y,Z Vertex 1 {m}
  11.129722368505, 5.56486118425249, 2.4384, !- X,Y,Z Vertex 2 {m}
  0, 5.56486118425249, 2.4384,            !- X,Y,Z Vertex 3 {m}
  0, 0, 2.4384;                           !- X,Y,Z Vertex 4 {m}

OS:Space,
  {b6c41de4-cbb3-43b6-9a59-59f3d8a2c978}, !- Handle
  living space|story 2,                   !- Name
  ,                                       !- Space Type Name
  ,                                       !- Default Construction Set Name
  ,                                       !- Default Schedule Set Name
  -0,                                     !- Direction of Relative North {deg}
  0,                                      !- X Origin {m}
  0,                                      !- Y Origin {m}
  2.4384,                                 !- Z Origin {m}
  ,                                       !- Building Story Name
  {c364e9c1-07f7-400d-8b72-e92441701c9f}, !- Thermal Zone Name
  ,                                       !- Part of Total Floor Area
  ,                                       !- Design Specification Outdoor Air Object Name
  {17d76482-8081-40e2-b2ea-1d4b22c785c6}; !- Building Unit Name

OS:Surface,
  {9e26496a-0032-4bf8-8d5a-20bf3dd4a222}, !- Handle
  Surface 7,                              !- Name
  Floor,                                  !- Surface Type
  ,                                       !- Construction Name
  {b6c41de4-cbb3-43b6-9a59-59f3d8a2c978}, !- Space Name
  Surface,                                !- Outside Boundary Condition
  {24ffbfda-c70b-4a14-b040-f868b279a5b8}, !- Outside Boundary Condition Object
  NoSun,                                  !- Sun Exposure
  NoWind,                                 !- Wind Exposure
  ,                                       !- View Factor to Ground
  ,                                       !- Number of Vertices
  0, 0, 0,                                !- X,Y,Z Vertex 1 {m}
  0, 5.56486118425249, 0,                 !- X,Y,Z Vertex 2 {m}
  11.129722368505, 5.56486118425249, 0,   !- X,Y,Z Vertex 3 {m}
  11.129722368505, 0, 0;                  !- X,Y,Z Vertex 4 {m}

OS:Surface,
  {0e421263-dc51-4977-9f6d-6f0e24a88426}, !- Handle
  Surface 8,                              !- Name
  Wall,                                   !- Surface Type
  {3476d283-4d26-444b-8d8f-e481d4c81230}, !- Construction Name
  {b6c41de4-cbb3-43b6-9a59-59f3d8a2c978}, !- Space Name
  Outdoors,                               !- Outside Boundary Condition
  ,                                       !- Outside Boundary Condition Object
  SunExposed,                             !- Sun Exposure
  WindExposed,                            !- Wind Exposure
  ,                                       !- View Factor to Ground
  ,                                       !- Number of Vertices
  0, 5.56486118425249, 2.4384,            !- X,Y,Z Vertex 1 {m}
  0, 5.56486118425249, 0,                 !- X,Y,Z Vertex 2 {m}
  0, 0, 0,                                !- X,Y,Z Vertex 3 {m}
  0, 0, 2.4384;                           !- X,Y,Z Vertex 4 {m}

OS:Surface,
  {ce61e2da-4731-4b3d-b49c-ea91949b4f85}, !- Handle
  Surface 9,                              !- Name
  Wall,                                   !- Surface Type
  {3476d283-4d26-444b-8d8f-e481d4c81230}, !- Construction Name
  {b6c41de4-cbb3-43b6-9a59-59f3d8a2c978}, !- Space Name
  Outdoors,                               !- Outside Boundary Condition
  ,                                       !- Outside Boundary Condition Object
  SunExposed,                             !- Sun Exposure
  WindExposed,                            !- Wind Exposure
  ,                                       !- View Factor to Ground
  ,                                       !- Number of Vertices
  11.129722368505, 5.56486118425249, 2.4384, !- X,Y,Z Vertex 1 {m}
  11.129722368505, 5.56486118425249, 0,   !- X,Y,Z Vertex 2 {m}
  0, 5.56486118425249, 0,                 !- X,Y,Z Vertex 3 {m}
  0, 5.56486118425249, 2.4384;            !- X,Y,Z Vertex 4 {m}

OS:Surface,
  {af01625f-64e1-4ea2-bc6e-dd28bf4bf3ca}, !- Handle
  Surface 10,                             !- Name
  Wall,                                   !- Surface Type
  {3476d283-4d26-444b-8d8f-e481d4c81230}, !- Construction Name
  {b6c41de4-cbb3-43b6-9a59-59f3d8a2c978}, !- Space Name
  Outdoors,                               !- Outside Boundary Condition
  ,                                       !- Outside Boundary Condition Object
  SunExposed,                             !- Sun Exposure
  WindExposed,                            !- Wind Exposure
  ,                                       !- View Factor to Ground
  ,                                       !- Number of Vertices
  11.129722368505, 0, 2.4384,             !- X,Y,Z Vertex 1 {m}
  11.129722368505, 0, 0,                  !- X,Y,Z Vertex 2 {m}
  11.129722368505, 5.56486118425249, 0,   !- X,Y,Z Vertex 3 {m}
  11.129722368505, 5.56486118425249, 2.4384; !- X,Y,Z Vertex 4 {m}

OS:Surface,
  {e422737b-303c-4025-956b-63ce37b9c182}, !- Handle
  Surface 11,                             !- Name
  Wall,                                   !- Surface Type
  {3476d283-4d26-444b-8d8f-e481d4c81230}, !- Construction Name
  {b6c41de4-cbb3-43b6-9a59-59f3d8a2c978}, !- Space Name
  Outdoors,                               !- Outside Boundary Condition
  ,                                       !- Outside Boundary Condition Object
  SunExposed,                             !- Sun Exposure
  WindExposed,                            !- Wind Exposure
  ,                                       !- View Factor to Ground
  ,                                       !- Number of Vertices
  0, 0, 2.4384,                           !- X,Y,Z Vertex 1 {m}
  0, 0, 0,                                !- X,Y,Z Vertex 2 {m}
  11.129722368505, 0, 0,                  !- X,Y,Z Vertex 3 {m}
  11.129722368505, 0, 2.4384;             !- X,Y,Z Vertex 4 {m}

OS:Surface,
  {7cd83245-83f7-4201-a3ac-57059fa30263}, !- Handle
  Surface 12,                             !- Name
  RoofCeiling,                            !- Surface Type
  ,                                       !- Construction Name
  {b6c41de4-cbb3-43b6-9a59-59f3d8a2c978}, !- Space Name
  Surface,                                !- Outside Boundary Condition
  {a20ceb9d-76aa-4457-80e7-29aaa65ecd2a}, !- Outside Boundary Condition Object
  NoSun,                                  !- Sun Exposure
  NoWind,                                 !- Wind Exposure
  ,                                       !- View Factor to Ground
  ,                                       !- Number of Vertices
  11.129722368505, 0, 2.4384,             !- X,Y,Z Vertex 1 {m}
  11.129722368505, 5.56486118425249, 2.4384, !- X,Y,Z Vertex 2 {m}
  0, 5.56486118425249, 2.4384,            !- X,Y,Z Vertex 3 {m}
  0, 0, 2.4384;                           !- X,Y,Z Vertex 4 {m}

OS:Surface,
  {a20ceb9d-76aa-4457-80e7-29aaa65ecd2a}, !- Handle
  Surface 13,                             !- Name
  Floor,                                  !- Surface Type
  ,                                       !- Construction Name
  {53e0a6c6-4e37-48ef-8103-5f015a5f5d6b}, !- Space Name
  Surface,                                !- Outside Boundary Condition
  {7cd83245-83f7-4201-a3ac-57059fa30263}, !- Outside Boundary Condition Object
  NoSun,                                  !- Sun Exposure
  NoWind,                                 !- Wind Exposure
  ,                                       !- View Factor to Ground
  ,                                       !- Number of Vertices
  0, 5.56486118425249, 0,                 !- X,Y,Z Vertex 1 {m}
  11.129722368505, 5.56486118425249, 0,   !- X,Y,Z Vertex 2 {m}
  11.129722368505, 0, 0,                  !- X,Y,Z Vertex 3 {m}
  0, 0, 0;                                !- X,Y,Z Vertex 4 {m}

OS:Surface,
  {b6c4ba96-4203-4368-a947-7467ecf842c3}, !- Handle
  Surface 14,                             !- Name
  RoofCeiling,                            !- Surface Type
  ,                                       !- Construction Name
  {53e0a6c6-4e37-48ef-8103-5f015a5f5d6b}, !- Space Name
  Outdoors,                               !- Outside Boundary Condition
  ,                                       !- Outside Boundary Condition Object
  SunExposed,                             !- Sun Exposure
  WindExposed,                            !- Wind Exposure
  ,                                       !- View Factor to Ground
  ,                                       !- Number of Vertices
  11.129722368505, 2.78243059212624, 1.39121529606312, !- X,Y,Z Vertex 1 {m}
  0, 2.78243059212624, 1.39121529606312,  !- X,Y,Z Vertex 2 {m}
  0, 0, 0,                                !- X,Y,Z Vertex 3 {m}
  11.129722368505, 0, 0;                  !- X,Y,Z Vertex 4 {m}

OS:Surface,
  {6a6b5723-642a-40ca-a69a-66d93e3ef9bc}, !- Handle
  Surface 15,                             !- Name
  RoofCeiling,                            !- Surface Type
  ,                                       !- Construction Name
  {53e0a6c6-4e37-48ef-8103-5f015a5f5d6b}, !- Space Name
  Outdoors,                               !- Outside Boundary Condition
  ,                                       !- Outside Boundary Condition Object
  SunExposed,                             !- Sun Exposure
  WindExposed,                            !- Wind Exposure
  ,                                       !- View Factor to Ground
  ,                                       !- Number of Vertices
  0, 2.78243059212624, 1.39121529606312,  !- X,Y,Z Vertex 1 {m}
  11.129722368505, 2.78243059212624, 1.39121529606312, !- X,Y,Z Vertex 2 {m}
  11.129722368505, 5.56486118425249, 0,   !- X,Y,Z Vertex 3 {m}
  0, 5.56486118425249, 0;                 !- X,Y,Z Vertex 4 {m}

OS:Surface,
  {bd0304ff-656b-4c19-a7b2-889f36485614}, !- Handle
  Surface 16,                             !- Name
  Wall,                                   !- Surface Type
  {3476d283-4d26-444b-8d8f-e481d4c81230}, !- Construction Name
  {53e0a6c6-4e37-48ef-8103-5f015a5f5d6b}, !- Space Name
  Outdoors,                               !- Outside Boundary Condition
  ,                                       !- Outside Boundary Condition Object
  SunExposed,                             !- Sun Exposure
  WindExposed,                            !- Wind Exposure
  ,                                       !- View Factor to Ground
  ,                                       !- Number of Vertices
  0, 2.78243059212624, 1.39121529606312,  !- X,Y,Z Vertex 1 {m}
  0, 5.56486118425249, 0,                 !- X,Y,Z Vertex 2 {m}
  0, 0, 0;                                !- X,Y,Z Vertex 3 {m}

OS:Surface,
  {0443fcd6-4a11-432e-9ea5-ca2b32d0dcb0}, !- Handle
  Surface 17,                             !- Name
  Wall,                                   !- Surface Type
  {3476d283-4d26-444b-8d8f-e481d4c81230}, !- Construction Name
  {53e0a6c6-4e37-48ef-8103-5f015a5f5d6b}, !- Space Name
  Outdoors,                               !- Outside Boundary Condition
  ,                                       !- Outside Boundary Condition Object
  SunExposed,                             !- Sun Exposure
  WindExposed,                            !- Wind Exposure
  ,                                       !- View Factor to Ground
  ,                                       !- Number of Vertices
  11.129722368505, 2.78243059212624, 1.39121529606312, !- X,Y,Z Vertex 1 {m}
  11.129722368505, 0, 0,                  !- X,Y,Z Vertex 2 {m}
  11.129722368505, 5.56486118425249, 0;   !- X,Y,Z Vertex 3 {m}

OS:Space,
  {53e0a6c6-4e37-48ef-8103-5f015a5f5d6b}, !- Handle
  finished attic space,                   !- Name
  ,                                       !- Space Type Name
  ,                                       !- Default Construction Set Name
  ,                                       !- Default Schedule Set Name
  -0,                                     !- Direction of Relative North {deg}
  0,                                      !- X Origin {m}
  0,                                      !- Y Origin {m}
  4.8768,                                 !- Z Origin {m}
  ,                                       !- Building Story Name
  {c364e9c1-07f7-400d-8b72-e92441701c9f}, !- Thermal Zone Name
  ,                                       !- Part of Total Floor Area
  ,                                       !- Design Specification Outdoor Air Object Name
  {17d76482-8081-40e2-b2ea-1d4b22c785c6}; !- Building Unit Name

OS:BuildingUnit,
  {17d76482-8081-40e2-b2ea-1d4b22c785c6}, !- Handle
  unit 1,                                 !- Name
  ,                                       !- Rendering Color
  Residential,                            !- Building Unit Type
  SizingInfoWallType|{8eecff10-aaa4-42a6-be65-472a06b731a4}, !- Building Unit Feature Name 1
  String,                                 !- Building Unit Feature Data Type 1
  WoodStud,                               !- Building Unit Feature Value 1
  SizingInfoStudWallCavityRvalue|{8eecff10-aaa4-42a6-be65-472a06b731a4}, !- Building Unit Feature Name 2
  Double,                                 !- Building Unit Feature Data Type 2
  13,                                     !- Building Unit Feature Value 2
  SizingInfoWallType|{9ec4c3a1-1c55-473b-bcad-db55a1b9cad9}, !- Building Unit Feature Name 3
  String,                                 !- Building Unit Feature Data Type 3
  WoodStud,                               !- Building Unit Feature Value 3
  SizingInfoStudWallCavityRvalue|{9ec4c3a1-1c55-473b-bcad-db55a1b9cad9}, !- Building Unit Feature Name 4
  Double,                                 !- Building Unit Feature Data Type 4
  13,                                     !- Building Unit Feature Value 4
  SizingInfoWallType|{3f04936d-e89e-416b-8789-ebac55dfeba9}, !- Building Unit Feature Name 5
  String,                                 !- Building Unit Feature Data Type 5
  WoodStud,                               !- Building Unit Feature Value 5
  SizingInfoStudWallCavityRvalue|{3f04936d-e89e-416b-8789-ebac55dfeba9}, !- Building Unit Feature Name 6
  Double,                                 !- Building Unit Feature Data Type 6
  13,                                     !- Building Unit Feature Value 6
  SizingInfoWallType|{ef1c5bab-b17a-4a31-8f04-890d972e0dd5}, !- Building Unit Feature Name 7
  String,                                 !- Building Unit Feature Data Type 7
  WoodStud,                               !- Building Unit Feature Value 7
  SizingInfoStudWallCavityRvalue|{ef1c5bab-b17a-4a31-8f04-890d972e0dd5}, !- Building Unit Feature Name 8
  Double,                                 !- Building Unit Feature Data Type 8