!- NOTE: Auto-generated from /test/osw_files/SFD_2000sqft_2story_SL_UA_AllLayersButExteriorFinish_CeilingIns.osw

OS:Version,
  {abf12fd2-d641-481e-8487-80cfa6adcb40}, !- Handle
  2.3.1;                                  !- Version Identifier

OS:Building,
  {bf305633-c5a1-4881-9edf-ca5e1a8e1274}, !- Handle
  Building,                               !- Name
  ,                                       !- Building Sector Type
  ,                                       !- North Axis {deg}
  ,                                       !- Nominal Floor to Floor Height {m}
  ,                                       !- Space Type Name
  ,                                       !- Default Construction Set Name
  ,                                       !- Default Schedule Set Name
  2,                                      !- Standards Number of Stories
  2,                                      !- Standards Number of Above Ground Stories
  singlefamilydetached,                   !- Standards Building Type
  1;                                      !- Standards Number of Living Units

OS:YearDescription,
  {513d8dda-86cb-442a-b01c-1f7f0e0ac70e}; !- Handle

OS:SimulationControl,
  {2c487a4c-bac9-4ac5-b669-1e49d9da7c2b}, !- Handle
  ,                                       !- Do Zone Sizing Calculation
  ,                                       !- Do System Sizing Calculation
  ,                                       !- Do Plant Sizing Calculation
  No,                                     !- Run Simulation for Sizing Periods
  ;                                       !- Run Simulation for Weather File Run Periods

OS:Timestep,
  {4ebc9f1e-4707-402e-9844-67eb1ffbd522}, !- Handle
  6;                                      !- Number of Timesteps per Hour

OS:RunPeriod,
  {28df894d-6af9-4fb8-8f56-df1753344aa3}, !- Handle
  Run Period,                             !- Name
  1,                                      !- Begin Month
  1,                                      !- Begin Day of Month
  12,                                     !- End Month
  31,                                     !- End Day of Month
  ,                                       !- Use Weather File Holidays and Special Days
  ,                                       !- Use Weather File Daylight Saving Period
  ,                                       !- Apply Weekend Holiday Rule
  ,                                       !- Use Weather File Rain Indicators
  ,                                       !- Use Weather File Snow Indicators
  ;                                       !- Number of Times Runperiod to be Repeated

OS:Sizing:Parameters,
  {dde5af6f-7923-4600-a28a-7556673a0266}, !- Handle
  1.0,                                    !- Heating Sizing Factor
  1.0;                                    !- Cooling Sizing Factor

OS:ShadowCalculation,
  {ca758bea-4416-4626-9bba-3d8795c79bd6}, !- Handle
  20,                                     !- Calculation Frequency
  200;                                    !- Maximum Figures in Shadow Overlap Calculations

OS:SurfaceConvectionAlgorithm:Inside,
  {aaabfc36-718a-4ab0-b622-f186ebb45230}, !- Handle
  TARP;                                   !- Algorithm

OS:SurfaceConvectionAlgorithm:Outside,
  {9a0a9f6f-4bbd-4b12-a121-9492a1fcd7d6}, !- Handle
  DOE-2;                                  !- Algorithm

OS:HeatBalanceAlgorithm,
  {9d93e563-e1e0-46d7-9e39-d1c8aceb7212}, !- Handle
  ConductionTransferFunction,             !- Algorithm
  200;                                    !- Surface Temperature Upper Limit {C}

OS:ZoneCapacitanceMultiplier:ResearchSpecial,
  {6bfced16-b16f-47f6-8223-f7e267d75d19}, !- Handle
  ,                                       !- Temperature Capacity Multiplier
  15,                                     !- Humidity Capacity Multiplier
  ;                                       !- Carbon Dioxide Capacity Multiplier

OS:ThermalZone,
  {9f089da3-9eba-4d97-b9da-68f689574ca2}, !- Handle
  living zone,                            !- Name
  ,                                       !- Multiplier
  ,                                       !- Ceiling Height {m}
  ,                                       !- Volume {m3}
  ,                                       !- Floor Area {m2}
  ,                                       !- Zone Inside Convection Algorithm
  ,                                       !- Zone Outside Convection Algorithm
  ,                                       !- Zone Conditioning Equipment List Name
  {69477e10-90cf-4308-9bc2-e62114746611}, !- Zone Air Inlet Port List
  {ab3258af-e29f-4e88-b369-f6829abd83f9}, !- Zone Air Exhaust Port List
  {87c30f7b-49ed-409a-84e6-2f4a833785ed}, !- Zone Air Node Name
  ,                                       !- Zone Return Air Node Name
  ,                                       !- Primary Daylighting Control Name
  ,                                       !- Fraction of Zone Controlled by Primary Daylighting Control
  ,                                       !- Secondary Daylighting Control Name
  ,                                       !- Fraction of Zone Controlled by Secondary Daylighting Control
  ,                                       !- Illuminance Map Name
  ,                                       !- Group Rendering Name
  ,                                       !- Thermostat Name
  No;                                     !- Use Ideal Air Loads

OS:Node,
  {0aad0d3d-5717-4efd-8629-5e90e8f5b27e}, !- Handle
  Node 1,                                 !- Name
  {87c30f7b-49ed-409a-84e6-2f4a833785ed}, !- Inlet Port
  ;                                       !- Outlet Port

OS:Connection,
  {87c30f7b-49ed-409a-84e6-2f4a833785ed}, !- Handle
  {bd6b0803-def7-45a3-8146-96b16b8d7fe4}, !- Name
  {9f089da3-9eba-4d97-b9da-68f689574ca2}, !- Source Object
  11,                                     !- Outlet Port
  {0aad0d3d-5717-4efd-8629-5e90e8f5b27e}, !- Target Object
  2;                                      !- Inlet Port

OS:PortList,
  {69477e10-90cf-4308-9bc2-e62114746611}, !- Handle
  {ee08aac9-947b-43ed-a04b-6ffaddcf9a57}, !- Name
  {9f089da3-9eba-4d97-b9da-68f689574ca2}; !- HVAC Component

OS:PortList,
  {ab3258af-e29f-4e88-b369-f6829abd83f9}, !- Handle
  {4ef7a685-1ac6-4ecb-a9e2-64017bd72c71}, !- Name
  {9f089da3-9eba-4d97-b9da-68f689574ca2}; !- HVAC Component

OS:Sizing:Zone,
  {1e9c5d68-da1b-46c2-adb7-4cdb585edaf0}, !- Handle
  {9f089da3-9eba-4d97-b9da-68f689574ca2}, !- Zone or ZoneList Name
  SupplyAirTemperature,                   !- Zone Cooling Design Supply Air Temperature Input Method
  14,                                     !- Zone Cooling Design Supply Air Temperature {C}
  11.11,                                  !- Zone Cooling Design Supply Air Temperature Difference {deltaC}
  SupplyAirTemperature,                   !- Zone Heating Design Supply Air Temperature Input Method
  40,                                     !- Zone Heating Design Supply Air Temperature {C}
  11.11,                                  !- Zone Heating Design Supply Air Temperature Difference {deltaC}
  0.0085,                                 !- Zone Cooling Design Supply Air Humidity Ratio {kg-H2O/kg-air}
  0.008,                                  !- Zone Heating Design Supply Air Humidity Ratio {kg-H2O/kg-air}
  ,                                       !- Zone Heating Sizing Factor
  ,                                       !- Zone Cooling Sizing Factor
  DesignDay,                              !- Cooling Design Air Flow Method
  ,                                       !- Cooling Design Air Flow Rate {m3/s}
  ,                                       !- Cooling Minimum Air Flow per Zone Floor Area {m3/s-m2}
  ,                                       !- Cooling Minimum Air Flow {m3/s}
  ,                                       !- Cooling Minimum Air Flow Fraction
  DesignDay,                              !- Heating Design Air Flow Method
  ,                                       !- Heating Design Air Flow Rate {m3/s}
  ,                                       !- Heating Maximum Air Flow per Zone Floor Area {m3/s-m2}
  ,                                       !- Heating Maximum Air Flow {m3/s}
  ,                                       !- Heating Maximum Air Flow Fraction
  ,                                       !- Design Zone Air Distribution Effectiveness in Cooling Mode
  ,                                       !- Design Zone Air Distribution Effectiveness in Heating Mode
  No,                                     !- Account for Dedicated Outdoor Air System
  NeutralSupplyAir,                       !- Dedicated Outdoor Air System Control Strategy
  autosize,                               !- Dedicated Outdoor Air Low Setpoint Temperature for Design {C}
  autosize;                               !- Dedicated Outdoor Air High Setpoint Temperature for Design {C}

OS:ZoneHVAC:EquipmentList,
  {cc05976a-16fb-47a4-af21-d1fbd66d1742}, !- Handle
  Zone HVAC Equipment List 1,             !- Name
  {9f089da3-9eba-4d97-b9da-68f689574ca2}; !- Thermal Zone

OS:Space,
  {a5d68338-df63-4a57-b3df-f4153808c819}, !- Handle
  living space,                           !- Name
  ,                                       !- Space Type Name
  ,                                       !- Default Construction Set Name
  ,                                       !- Default Schedule Set Name
  -0,                                     !- Direction of Relative North {deg}
  0,                                      !- X Origin {m}
  0,                                      !- Y Origin {m}
  0,                                      !- Z Origin {m}
  ,                                       !- Building Story Name
  {9f089da3-9eba-4d97-b9da-68f689574ca2}, !- Thermal Zone Name
  ,                                       !- Part of Total Floor Area
  ,                                       !- Design Specification Outdoor Air Object Name
  {6416a1bf-2c22-4c0f-99f2-5abc8d157277}; !- Building Unit Name

OS:Surface,
  {708d4fd0-d053-4c4d-8a7f-8b402f8169e2}, !- Handle
  Surface 1,                              !- Name
  Floor,                                  !- Surface Type
  ,                                       !- Construction Name
  {a5d68338-df63-4a57-b3df-f4153808c819}, !- Space Name
  Ground,                                 !- Outside Boundary Condition
  ,                                       !- Outside Boundary Condition Object
  NoSun,                                  !- Sun Exposure
  NoWind,                                 !- Wind Exposure
  ,                                       !- View Factor to Ground
  ,                                       !- Number of Vertices
  0, 0, 0,                                !- X,Y,Z Vertex 1 {m}
  0, 6.81553519541936, 0,                 !- X,Y,Z Vertex 2 {m}
  13.6310703908387, 6.81553519541936, 0,  !- X,Y,Z Vertex 3 {m}
  13.6310703908387, 0, 0;                 !- X,Y,Z Vertex 4 {m}

OS:Surface,
  {10ca0562-d451-4962-ad99-db88e537d026}, !- Handle
  Surface 2,                              !- Name
  Wall,                                   !- Surface Type
  {1719db39-d079-4112-b53f-59431c815252}, !- Construction Name
  {a5d68338-df63-4a57-b3df-f4153808c819}, !- Space Name
  Outdoors,                               !- Outside Boundary Condition
  ,                                       !- Outside Boundary Condition Object
  SunExposed,                             !- Sun Exposure
  WindExposed,                            !- Wind Exposure
  ,                                       !- View Factor to Ground
  ,                                       !- Number of Vertices
  0, 6.81553519541936, 2.4384,            !- X,Y,Z Vertex 1 {m}
  0, 6.81553519541936, 0,                 !- X,Y,Z Vertex 2 {m}
  0, 0, 0,                                !- X,Y,Z Vertex 3 {m}
  0, 0, 2.4384;                           !- X,Y,Z Vertex 4 {m}

OS:Surface,
  {1c4dd2ae-0c62-4a2a-a319-8c97a71116b3}, !- Handle
  Surface 3,                              !- Name
  Wall,                                   !- Surface Type
  {1719db39-d079-4112-b53f-59431c815252}, !- Construction Name
  {a5d68338-df63-4a57-b3df-f4153808c819}, !- Space Name
  Outdoors,                               !- Outside Boundary Condition
  ,                                       !- Outside Boundary Condition Object
  SunExposed,                             !- Sun Exposure
  WindExposed,                            !- Wind Exposure
  ,                                       !- View Factor to Ground
  ,                                       !- Number of Vertices
  13.6310703908387, 6.81553519541936, 2.4384, !- X,Y,Z Vertex 1 {m}
  13.6310703908387, 6.81553519541936, 0,  !- X,Y,Z Vertex 2 {m}
  0, 6.81553519541936, 0,                 !- X,Y,Z Vertex 3 {m}
  0, 6.81553519541936, 2.4384;            !- X,Y,Z Vertex 4 {m}

OS:Surface,
  {c6995e2f-db04-4a22-9e11-69d32998fe42}, !- Handle
  Surface 4,                              !- Name
  Wall,                                   !- Surface Type
  {1719db39-d079-4112-b53f-59431c815252}, !- Construction Name
  {a5d68338-df63-4a57-b3df-f4153808c819}, !- Space Name
  Outdoors,                               !- Outside Boundary Condition
  ,                                       !- Outside Boundary Condition Object
  SunExposed,                             !- Sun Exposure
  WindExposed,                            !- Wind Exposure
  ,                                       !- View Factor to Ground
  ,                                       !- Number of Vertices
  13.6310703908387, 0, 2.4384,            !- X,Y,Z Vertex 1 {m}
  13.6310703908387, 0, 0,                 !- X,Y,Z Vertex 2 {m}
  13.6310703908387, 6.81553519541936, 0,  !- X,Y,Z Vertex 3 {m}
  13.6310703908387, 6.81553519541936, 2.4384; !- X,Y,Z Vertex 4 {m}

OS:Surface,
  {79235535-2f7a-431b-b79d-4b85ab611a62}, !- Handle
  Surface 5,                              !- Name
  Wall,                                   !- Surface Type
  {1719db39-d079-4112-b53f-59431c815252}, !- Construction Name
  {a5d68338-df63-4a57-b3df-f4153808c819}, !- Space Name
  Outdoors,                               !- Outside Boundary Condition
  ,                                       !- Outside Boundary Condition Object
  SunExposed,                             !- Sun Exposure
  WindExposed,                            !- Wind Exposure
  ,                                       !- View Factor to Ground
  ,                                       !- Number of Vertices
  0, 0, 2.4384,                           !- X,Y,Z Vertex 1 {m}
  0, 0, 0,                                !- X,Y,Z Vertex 2 {m}
  13.6310703908387, 0, 0,                 !- X,Y,Z Vertex 3 {m}
  13.6310703908387, 0, 2.4384;            !- X,Y,Z Vertex 4 {m}

OS:Surface,
  {b19604c9-2b51-4a24-9503-f557e0f32082}, !- Handle
  Surface 6,                              !- Name
  RoofCeiling,                            !- Surface Type
  {173bae8b-c185-4389-8771-b7ee80b84da7}, !- Construction Name
  {a5d68338-df63-4a57-b3df-f4153808c819}, !- Space Name
  Surface,                                !- Outside Boundary Condition
  {f9eee93a-48d9-4dff-81da-0e8d39f3444f}, !- Outside Boundary Condition Object
  NoSun,                                  !- Sun Exposure
  NoWind,                                 !- Wind Exposure
  ,                                       !- View Factor to Ground
  ,                                       !- Number of Vertices
  13.6310703908387, 0, 2.4384,            !- X,Y,Z Vertex 1 {m}
  13.6310703908387, 6.81553519541936, 2.4384, !- X,Y,Z Vertex 2 {m}
  0, 6.81553519541936, 2.4384,            !- X,Y,Z Vertex 3 {m}
  0, 0, 2.4384;                           !- X,Y,Z Vertex 4 {m}

OS:Space,
  {8234b6cd-5997-42a8-8e47-b060ee8d6547}, !- Handle
  living space|story 2,                   !- Name
  ,                                       !- Space Type Name
  ,                                       !- Default Construction Set Name
  ,                                       !- Default Schedule Set Name
  -0,                                     !- Direction of Relative North {deg}
  0,                                      !- X Origin {m}
  0,                                      !- Y Origin {m}
  2.4384,                                 !- Z Origin {m}
  ,                                       !- Building Story Name
  {9f089da3-9eba-4d97-b9da-68f689574ca2}, !- Thermal Zone Name
  ,                                       !- Part of Total Floor Area
  ,                                       !- Design Specification Outdoor Air Object Name
  {6416a1bf-2c22-4c0f-99f2-5abc8d157277}; !- Building Unit Name

OS:Surface,
  {f9eee93a-48d9-4dff-81da-0e8d39f3444f}, !- Handle
  Surface 7,                              !- Name
  Floor,                                  !- Surface Type
  {173bae8b-c185-4389-8771-b7ee80b84da7}, !- Construction Name
  {8234b6cd-5997-42a8-8e47-b060ee8d6547}, !- Space Name
  Surface,                                !- Outside Boundary Condition
  {b19604c9-2b51-4a24-9503-f557e0f32082}, !- Outside Boundary Condition Object
  NoSun,                                  !- Sun Exposure
  NoWind,                                 !- Wind Exposure
  ,                                       !- View Factor to Ground
  ,                                       !- Number of Vertices
  0, 0, 0,                                !- X,Y,Z Vertex 1 {m}
  0, 6.81553519541936, 0,                 !- X,Y,Z Vertex 2 {m}
  13.6310703908387, 6.81553519541936, 0,  !- X,Y,Z Vertex 3 {m}
  13.6310703908387, 0, 0;                 !- X,Y,Z Vertex 4 {m}

OS:Surface,
  {f039b2f2-a851-4c29-a679-8d561c8ff5ee}, !- Handle
  Surface 8,                              !- Name
  Wall,                                   !- Surface Type
  {1719db39-d079-4112-b53f-59431c815252}, !- Construction Name
  {8234b6cd-5997-42a8-8e47-b060ee8d6547}, !- Space Name
  Outdoors,                               !- Outside Boundary Condition
  ,                                       !- Outside Boundary Condition Object
  SunExposed,                             !- Sun Exposure
  WindExposed,                            !- Wind Exposure
  ,                                       !- View Factor to Ground
  ,                                       !- Number of Vertices
  0, 6.81553519541936, 2.4384,            !- X,Y,Z Vertex 1 {m}
  0, 6.81553519541936, 0,                 !- X,Y,Z Vertex 2 {m}
  0, 0, 0,                                !- X,Y,Z Vertex 3 {m}
  0, 0, 2.4384;                           !- X,Y,Z Vertex 4 {m}

OS:Surface,
  {56f79f07-ae8b-4fb5-be02-c81d9396eb5f}, !- Handle
  Surface 9,                              !- Name
  Wall,                                   !- Surface Type
  {1719db39-d079-4112-b53f-59431c815252}, !- Construction Name
  {8234b6cd-5997-42a8-8e47-b060ee8d6547}, !- Space Name
  Outdoors,                               !- Outside Boundary Condition
  ,                                       !- Outside Boundary Condition Object
  SunExposed,                             !- Sun Exposure
  WindExposed,                            !- Wind Exposure
  ,                                       !- View Factor to Ground
  ,                                       !- Number of Vertices
  13.6310703908387, 6.81553519541936, 2.4384, !- X,Y,Z Vertex 1 {m}
  13.6310703908387, 6.81553519541936, 0,  !- X,Y,Z Vertex 2 {m}
  0, 6.81553519541936, 0,                 !- X,Y,Z Vertex 3 {m}
  0, 6.81553519541936, 2.4384;            !- X,Y,Z Vertex 4 {m}

OS:Surface,
  {7a8534fa-00c6-4ec1-a2eb-420485f654c9}, !- Handle
  Surface 10,                             !- Name
  Wall,                                   !- Surface Type
  {1719db39-d079-4112-b53f-59431c815252}, !- Construction Name
  {8234b6cd-5997-42a8-8e47-b060ee8d6547}, !- Space Name
  Outdoors,                               !- Outside Boundary Condition
  ,                                       !- Outside Boundary Condition Object
  SunExposed,                             !- Sun Exposure
  WindExposed,                            !- Wind Exposure
  ,                                       !- View Factor to Ground
  ,                                       !- Number of Vertices
  13.6310703908387, 0, 2.4384,            !- X,Y,Z Vertex 1 {m}
  13.6310703908387, 0, 0,                 !- X,Y,Z Vertex 2 {m}
  13.6310703908387, 6.81553519541936, 0,  !- X,Y,Z Vertex 3 {m}
  13.6310703908387, 6.81553519541936, 2.4384; !- X,Y,Z Vertex 4 {m}

OS:Surface,
  {b9306efd-f3a9-4af4-a15f-451511022fc7}, !- Handle
  Surface 11,                             !- Name
  Wall,                                   !- Surface Type
  {1719db39-d079-4112-b53f-59431c815252}, !- Construction Name
  {8234b6cd-5997-42a8-8e47-b060ee8d6547}, !- Space Name
  Outdoors,                               !- Outside Boundary Condition
  ,                                       !- Outside Boundary Condition Object
  SunExposed,                             !- Sun Exposure
  WindExposed,                            !- Wind Exposure
  ,                                       !- View Factor to Ground
  ,                                       !- Number of Vertices
  0, 0, 2.4384,                           !- X,Y,Z Vertex 1 {m}
  0, 0, 0,                                !- X,Y,Z Vertex 2 {m}
  13.6310703908387, 0, 0,                 !- X,Y,Z Vertex 3 {m}
  13.6310703908387, 0, 2.4384;            !- X,Y,Z Vertex 4 {m}

OS:Surface,
  {4fb4a2a3-d65a-4f3f-a110-983e6b9f0349}, !- Handle
  Surface 12,                             !- Name
  RoofCeiling,                            !- Surface Type
  {884480c3-fc0a-4730-b895-63ef7a29482f}, !- Construction Name
  {8234b6cd-5997-42a8-8e47-b060ee8d6547}, !- Space Name
  Surface,                                !- Outside Boundary Condition
  {8e22e132-375e-483f-b98f-59d14943d2e1}, !- Outside Boundary Condition Object
  NoSun,                                  !- Sun Exposure
  NoWind,                                 !- Wind Exposure
  ,                                       !- View Factor to Ground
  ,                                       !- Number of Vertices
  13.6310703908387, 0, 2.4384,            !- X,Y,Z Vertex 1 {m}
  13.6310703908387, 6.81553519541936, 2.4384, !- X,Y,Z Vertex 2 {m}
  0, 6.81553519541936, 2.4384,            !- X,Y,Z Vertex 3 {m}
  0, 0, 2.4384;                           !- X,Y,Z Vertex 4 {m}

OS:Surface,
  {8e22e132-375e-483f-b98f-59d14943d2e1}, !- Handle
  Surface 13,                             !- Name
  Floor,                                  !- Surface Type
  {9e2d964d-7284-4213-9e2a-f7e6ec98f678}, !- Construction Name
  {fd0a914b-8e12-4830-a81c-37a813823685}, !- Space Name
  Surface,                                !- Outside Boundary Condition
  {4fb4a2a3-d65a-4f3f-a110-983e6b9f0349}, !- Outside Boundary Condition Object
  NoSun,                                  !- Sun Exposure
  NoWind,                                 !- Wind Exposure
  ,                                       !- View Factor to Ground
  ,                                       !- Number of Vertices
  0, 6.81553519541936, 0,                 !- X,Y,Z Vertex 1 {m}
  13.6310703908387, 6.81553519541936, 0,  !- X,Y,Z Vertex 2 {m}
  13.6310703908387, 0, 0,                 !- X,Y,Z Vertex 3 {m}
  0, 0, 0;                                !- X,Y,Z Vertex 4 {m}

OS:Surface,
  {98875bcf-e8c7-4c27-8d46-6b521cb597b5}, !- Handle
  Surface 14,                             !- Name
  RoofCeiling,                            !- Surface Type
  {31d352d2-3194-4302-a926-3cfd31dcdcca}, !- Construction Name
  {fd0a914b-8e12-4830-a81c-37a813823685}, !- Space Name
  Outdoors,                               !- Outside Boundary Condition
  ,                                       !- Outside Boundary Condition Object
  SunExposed,                             !- Sun Exposure
  WindExposed,                            !- Wind Exposure
  ,                                       !- View Factor to Ground
  ,                                       !- Number of Vertices
  13.6310703908387, 3.40776759770968, 1.70388379885484, !- X,Y,Z Vertex 1 {m}
  0, 3.40776759770968, 1.70388379885484,  !- X,Y,Z Vertex 2 {m}
  0, 0, 0,                                !- X,Y,Z Vertex 3 {m}
  13.6310703908387, 0, 0;                 !- X,Y,Z Vertex 4 {m}

OS:Surface,
  {c8dcc213-7aeb-4bd7-9eaf-43166a324e87}, !- Handle
  Surface 15,                             !- Name
  RoofCeiling,                            !- Surface Type
  {31d352d2-3194-4302-a926-3cfd31dcdcca}, !- Construction Name
  {fd0a914b-8e12-4830-a81c-37a813823685}, !- Space Name
  Outdoors,                               !- Outside Boundary Condition
  ,                                       !- Outside Boundary Condition Object
  SunExposed,                             !- Sun Exposure
  WindExposed,                            !- Wind Exposure
  ,                                       !- View Factor to Ground
  ,                                       !- Number of Vertices
  0, 3.40776759770968, 1.70388379885484,  !- X,Y,Z Vertex 1 {m}
  13.6310703908387, 3.40776759770968, 1.70388379885484, !- X,Y,Z Vertex 2 {m}
  13.6310703908387, 6.81553519541936, 0,  !- X,Y,Z Vertex 3 {m}
  0, 6.81553519541936, 0;                 !- X,Y,Z Vertex 4 {m}

OS:Surface,
  {066ffe12-a9a0-4f14-993e-fe59263455fd}, !- Handle
  Surface 16,                             !- Name
  Wall,                                   !- Surface Type
  {017d8e61-ca0c-417e-b156-a9f4f921abee}, !- Construction Name
  {fd0a914b-8e12-4830-a81c-37a813823685}, !- Space Name
  Outdoors,                               !- Outside Boundary Condition
  ,                                       !- Outside Boundary Condition Object
  SunExposed,                             !- Sun Exposure
  WindExposed,                            !- Wind Exposure
  ,                                       !- View Factor to Ground
  ,                                       !- Number of Vertices
  0, 3.40776759770968, 1.70388379885484,  !- X,Y,Z Vertex 1 {m}
  0, 6.81553519541936, 0,                 !- X,Y,Z Vertex 2 {m}
  0, 0, 0;                                !- X,Y,Z Vertex 3 {m}

OS:Surface,
  {97ab57be-a454-4de1-a031-64940cebc827}, !- Handle
  Surface 17,                             !- Name
  Wall,                                   !- Surface Type
  {017d8e61-ca0c-417e-b156-a9f4f921abee}, !- Construction Name
  {fd0a914b-8e12-4830-a81c-37a813823685}, !- Space Name
  Outdoors,                               !- Outside Boundary Condition
  ,                                       !- Outside Boundary Condition Object
  SunExposed,                             !- Sun Exposure
  WindExposed,                            !- Wind Exposure
  ,                                       !- View Factor to Ground
  ,                                       !- Number of Vertices
  13.6310703908387, 3.40776759770968, 1.70388379885484, !- X,Y,Z Vertex 1 {m}
  13.6310703908387, 0, 0,                 !- X,Y,Z Vertex 2 {m}
  13.6310703908387, 6.81553519541936, 0;  !- X,Y,Z Vertex 3 {m}

OS:Space,
  {fd0a914b-8e12-4830-a81c-37a813823685}, !- Handle
  unfinished attic space,                 !- Name
  ,                                       !- Space Type Name
  ,                                       !- Default Construction Set Name
  ,                                       !- Default Schedule Set Name
  -0,                                     !- Direction of Relative North {deg}
  0,                                      !- X Origin {m}
  0,                                      !- Y Origin {m}
  4.8768,                                 !- Z Origin {m}
  ,                                       !- Building Story Name
  {6dc36e34-0007-42c7-a024-d56eaef5d062}, !- Thermal Zone Name
  ,                                       !- Part of Total Floor Area
  ,                                       !- Design Specification Outdoor Air Object Name
  {6416a1bf-2c22-4c0f-99f2-5abc8d157277}; !- Building Unit Name

OS:ThermalZone,
  {6dc36e34-0007-42c7-a024-d56eaef5d062}, !- Handle
  unfinished attic zone,                  !- Name
  ,                                       !- Multiplier
  ,                                       !- Ceiling Height {m}
  ,                                       !- Volume {m3}
  ,                                       !- Floor Area {m2}
  ,                                       !- Zone Inside Convection Algorithm
  ,                                       !- Zone Outside Convection Algorithm
  ,                                       !- Zone Conditioning Equipment List Name
  {7650e20f-f30c-4af4-b73a-562dfa2003dc}, !- Zone Air Inlet Port List
  {73d50dbd-3a7b-41cf-bd34-18b8019bc678}, !- Zone Air Exhaust Port List
  {0f89ce51-cf96-4af2-971d-a066770f1896}, !- Zone Air Node Name
  ,                                       !- Zone Return Air Node Name
  ,                                       !- Primary Daylighting Control Name
  ,                                       !- Fraction of Zone Controlled by Primary Daylighting Control
  ,                                       !- Secondary Daylighting Control Name
  ,                                       !- Fraction of Zone Controlled by Secondary Daylighting Control
  ,                                       !- Illuminance Map Name
  ,                                       !- Group Rendering Name
  ,                                       !- Thermostat Name
  No;                                     !- Use Ideal Air Loads

OS:Node,
  {d6b5f986-2909-4489-ae61-2f163f8a5980}, !- Handle
  Node 2,                                 !- Name
  {0f89ce51-cf96-4af2-971d-a066770f1896}, !- Inlet Port
  ;                                       !- Outlet Port

OS:Connection,
  {0f89ce51-cf96-4af2-971d-a066770f1896}, !- Handle
  {7bdf4e7a-d252-4ef2-b038-1a04319036f7}, !- Name
  {6dc36e34-0007-42c7-a024-d56eaef5d062}, !- Source Object
  11,                                     !- Outlet Port
  {d6b5f986-2909-4489-ae61-2f163f8a5980}, !- Target Object
  2;                                      !- Inlet Port

OS:PortList,
  {7650e20f-f30c-4af4-b73a-562dfa2003dc}, !- Handle