!- NOTE: Auto-generated from /test/osw_files/SFD_2000sqft_2story_SL_UA_AllLayersButExteriorFinish_CeilingIns.osw

OS:Version,
  {fc003c06-618b-4051-9b37-6b6f71b12672}, !- Handle
  2.2.0;                                  !- Version Identifier

OS:Building,
  {bf305633-c5a1-4881-9edf-ca5e1a8e1274}, !- Handle
  Building,                               !- Name
  ,                                       !- Building Sector Type
  ,                                       !- North Axis {deg}
  ,                                       !- Nominal Floor to Floor Height {m}
  ,                                       !- Space Type Name
  ,                                       !- Default Construction Set Name
  ,                                       !- Default Schedule Set Name
  2,                                      !- Standards Number of Stories
  2,                                      !- Standards Number of Above Ground Stories
  singlefamilydetached,                   !- Standards Building Type
  1;                                      !- Standards Number of Living Units

OS:YearDescription,
  {513d8dda-86cb-442a-b01c-1f7f0e0ac70e}; !- Handle

OS:SimulationControl,
  {2c487a4c-bac9-4ac5-b669-1e49d9da7c2b}, !- Handle
  ,                                       !- Do Zone Sizing Calculation
  ,                                       !- Do System Sizing Calculation
  ,                                       !- Do Plant Sizing Calculation
  No,                                     !- Run Simulation for Sizing Periods
  ;                                       !- Run Simulation for Weather File Run Periods

OS:Timestep,
  {4ebc9f1e-4707-402e-9844-67eb1ffbd522}, !- Handle
  6;                                      !- Number of Timesteps per Hour

OS:RunPeriod,
  {28df894d-6af9-4fb8-8f56-df1753344aa3}, !- Handle
  Run Period,                             !- Name
  1,                                      !- Begin Month
  1,                                      !- Begin Day of Month
  12,                                     !- End Month
  31,                                     !- End Day of Month
  ,                                       !- Use Weather File Holidays and Special Days
  ,                                       !- Use Weather File Daylight Saving Period
  ,                                       !- Apply Weekend Holiday Rule
  ,                                       !- Use Weather File Rain Indicators
  ,                                       !- Use Weather File Snow Indicators
  ;                                       !- Number of Times Runperiod to be Repeated

OS:Sizing:Parameters,
  {dde5af6f-7923-4600-a28a-7556673a0266}, !- Handle
  1.0,                                    !- Heating Sizing Factor
  1.0;                                    !- Cooling Sizing Factor

OS:ShadowCalculation,
  {ca758bea-4416-4626-9bba-3d8795c79bd6}, !- Handle
  20,                                     !- Calculation Frequency
  200;                                    !- Maximum Figures in Shadow Overlap Calculations

OS:SurfaceConvectionAlgorithm:Inside,
  {aaabfc36-718a-4ab0-b622-f186ebb45230}, !- Handle
  TARP;                                   !- Algorithm

OS:SurfaceConvectionAlgorithm:Outside,
  {9a0a9f6f-4bbd-4b12-a121-9492a1fcd7d6}, !- Handle
  DOE-2;                                  !- Algorithm

OS:HeatBalanceAlgorithm,
  {9d93e563-e1e0-46d7-9e39-d1c8aceb7212}, !- Handle
  ConductionTransferFunction,             !- Algorithm
  200;                                    !- Surface Temperature Upper Limit {C}

OS:ZoneCapacitanceMultiplier:ResearchSpecial,
  {6bfced16-b16f-47f6-8223-f7e267d75d19}, !- Handle
  ,                                       !- Temperature Capacity Multiplier
  15,                                     !- Humidity Capacity Multiplier
  ;                                       !- Carbon Dioxide Capacity Multiplier

OS:ThermalZone,
  {9faae84e-6c27-4b57-95ab-a93acc5591ca}, !- Handle
  living zone,                            !- Name
  ,                                       !- Multiplier
  ,                                       !- Ceiling Height {m}
  ,                                       !- Volume {m3}
  ,                                       !- Floor Area {m2}
  ,                                       !- Zone Inside Convection Algorithm
  ,                                       !- Zone Outside Convection Algorithm
  ,                                       !- Zone Conditioning Equipment List Name
  {b3b2f7e6-1550-4036-9299-a1c378ae0d6b}, !- Zone Air Inlet Port List
  {21413934-b1ab-4dd4-bbfe-c7391e2a502e}, !- Zone Air Exhaust Port List
  {f7d38376-f8ad-4b72-9f44-3fd28d6d989f}, !- Zone Air Node Name
  ,                                       !- Zone Return Air Node Name
  ,                                       !- Primary Daylighting Control Name
  ,                                       !- Fraction of Zone Controlled by Primary Daylighting Control
  ,                                       !- Secondary Daylighting Control Name
  ,                                       !- Fraction of Zone Controlled by Secondary Daylighting Control
  ,                                       !- Illuminance Map Name
  ,                                       !- Group Rendering Name
  ,                                       !- Thermostat Name
  No;                                     !- Use Ideal Air Loads

OS:Node,
  {0d8505aa-5df2-41d8-aff7-d369ad8e11df}, !- Handle
  Node 1,                                 !- Name
  {f7d38376-f8ad-4b72-9f44-3fd28d6d989f}, !- Inlet Port
  ;                                       !- Outlet Port

OS:Connection,
  {f7d38376-f8ad-4b72-9f44-3fd28d6d989f}, !- Handle
  {d37cf741-1633-45c8-a328-957a541887c9}, !- Name
  {9faae84e-6c27-4b57-95ab-a93acc5591ca}, !- Source Object
  11,                                     !- Outlet Port
  {0d8505aa-5df2-41d8-aff7-d369ad8e11df}, !- Target Object
  2;                                      !- Inlet Port

OS:PortList,
  {b3b2f7e6-1550-4036-9299-a1c378ae0d6b}, !- Handle
  {b2af11e1-ebfd-4d3b-8a3f-0289d1351830}, !- Name
  {9faae84e-6c27-4b57-95ab-a93acc5591ca}; !- HVAC Component

OS:PortList,
  {21413934-b1ab-4dd4-bbfe-c7391e2a502e}, !- Handle
  {8d323399-74a6-43ca-8ebf-f76ecfb5501d}, !- Name
  {9faae84e-6c27-4b57-95ab-a93acc5591ca}; !- HVAC Component

OS:Sizing:Zone,
  {19f98ad7-d003-41fd-82ff-cb3a9544edfa}, !- Handle
  {9faae84e-6c27-4b57-95ab-a93acc5591ca}, !- Zone or ZoneList Name
  SupplyAirTemperature,                   !- Zone Cooling Design Supply Air Temperature Input Method
  14,                                     !- Zone Cooling Design Supply Air Temperature {C}
  11.11,                                  !- Zone Cooling Design Supply Air Temperature Difference {deltaC}
  SupplyAirTemperature,                   !- Zone Heating Design Supply Air Temperature Input Method
  40,                                     !- Zone Heating Design Supply Air Temperature {C}
  11.11,                                  !- Zone Heating Design Supply Air Temperature Difference {deltaC}
  0.0085,                                 !- Zone Cooling Design Supply Air Humidity Ratio {kg-H2O/kg-air}
  0.008,                                  !- Zone Heating Design Supply Air Humidity Ratio {kg-H2O/kg-air}
  ,                                       !- Zone Heating Sizing Factor
  ,                                       !- Zone Cooling Sizing Factor
  DesignDay,                              !- Cooling Design Air Flow Method
  ,                                       !- Cooling Design Air Flow Rate {m3/s}
  ,                                       !- Cooling Minimum Air Flow per Zone Floor Area {m3/s-m2}
  ,                                       !- Cooling Minimum Air Flow {m3/s}
  ,                                       !- Cooling Minimum Air Flow Fraction
  DesignDay,                              !- Heating Design Air Flow Method
  ,                                       !- Heating Design Air Flow Rate {m3/s}
  ,                                       !- Heating Maximum Air Flow per Zone Floor Area {m3/s-m2}
  ,                                       !- Heating Maximum Air Flow {m3/s}
  ,                                       !- Heating Maximum Air Flow Fraction
  ,                                       !- Design Zone Air Distribution Effectiveness in Cooling Mode
  ,                                       !- Design Zone Air Distribution Effectiveness in Heating Mode
  No,                                     !- Account for Dedicated Outdoor Air System
  NeutralSupplyAir,                       !- Dedicated Outdoor Air System Control Strategy
  autosize,                               !- Dedicated Outdoor Air Low Setpoint Temperature for Design {C}
  autosize;                               !- Dedicated Outdoor Air High Setpoint Temperature for Design {C}

OS:ZoneHVAC:EquipmentList,
  {56b032b2-e174-4b10-afd4-2a95db8a78a4}, !- Handle
  Zone HVAC Equipment List 1,             !- Name
  {9faae84e-6c27-4b57-95ab-a93acc5591ca}; !- Thermal Zone

OS:Space,
  {bb89b4b3-4d99-48db-a9b4-24c860e455a4}, !- Handle
  living space,                           !- Name
  ,                                       !- Space Type Name
  ,                                       !- Default Construction Set Name
  ,                                       !- Default Schedule Set Name
  -0,                                     !- Direction of Relative North {deg}
  0,                                      !- X Origin {m}
  0,                                      !- Y Origin {m}
  0,                                      !- Z Origin {m}
  ,                                       !- Building Story Name
  {9faae84e-6c27-4b57-95ab-a93acc5591ca}, !- Thermal Zone Name
  ,                                       !- Part of Total Floor Area
  ,                                       !- Design Specification Outdoor Air Object Name
  {09a88062-4c77-466e-b1ad-c845a44bcb35}; !- Building Unit Name

OS:Surface,
  {181478ed-21d5-4df7-ab17-18790820ae5f}, !- Handle
  Surface 1,                              !- Name
  Floor,                                  !- Surface Type
  ,                                       !- Construction Name
  {bb89b4b3-4d99-48db-a9b4-24c860e455a4}, !- Space Name
  Ground,                                 !- Outside Boundary Condition
  ,                                       !- Outside Boundary Condition Object
  NoSun,                                  !- Sun Exposure
  NoWind,                                 !- Wind Exposure
  ,                                       !- View Factor to Ground
  ,                                       !- Number of Vertices
  0, 0, 0,                                !- X,Y,Z Vertex 1 {m}
  0, 6.81553519541936, 0,                 !- X,Y,Z Vertex 2 {m}
  13.6310703908387, 6.81553519541936, 0,  !- X,Y,Z Vertex 3 {m}
  13.6310703908387, 0, 0;                 !- X,Y,Z Vertex 4 {m}

OS:Surface,
  {e957604a-6f8b-4d0f-90b8-18d7b178f358}, !- Handle
  Surface 2,                              !- Name
  Wall,                                   !- Surface Type
  {babda557-2da5-46d1-be87-ac3915adb560}, !- Construction Name
  {bb89b4b3-4d99-48db-a9b4-24c860e455a4}, !- Space Name
  Outdoors,                               !- Outside Boundary Condition
  ,                                       !- Outside Boundary Condition Object
  SunExposed,                             !- Sun Exposure
  WindExposed,                            !- Wind Exposure
  ,                                       !- View Factor to Ground
  ,                                       !- Number of Vertices
  0, 6.81553519541936, 2.4384,            !- X,Y,Z Vertex 1 {m}
  0, 6.81553519541936, 0,                 !- X,Y,Z Vertex 2 {m}
  0, 0, 0,                                !- X,Y,Z Vertex 3 {m}
  0, 0, 2.4384;                           !- X,Y,Z Vertex 4 {m}

OS:Surface,
  {608bc644-65ce-435f-9a28-e63bc89db8bd}, !- Handle
  Surface 3,                              !- Name
  Wall,                                   !- Surface Type
  {babda557-2da5-46d1-be87-ac3915adb560}, !- Construction Name
  {bb89b4b3-4d99-48db-a9b4-24c860e455a4}, !- Space Name
  Outdoors,                               !- Outside Boundary Condition
  ,                                       !- Outside Boundary Condition Object
  SunExposed,                             !- Sun Exposure
  WindExposed,                            !- Wind Exposure
  ,                                       !- View Factor to Ground
  ,                                       !- Number of Vertices
  13.6310703908387, 6.81553519541936, 2.4384, !- X,Y,Z Vertex 1 {m}
  13.6310703908387, 6.81553519541936, 0,  !- X,Y,Z Vertex 2 {m}
  0, 6.81553519541936, 0,                 !- X,Y,Z Vertex 3 {m}
  0, 6.81553519541936, 2.4384;            !- X,Y,Z Vertex 4 {m}

OS:Surface,
  {5539fb88-7692-4567-92f0-4092c1f06895}, !- Handle
  Surface 4,                              !- Name
  Wall,                                   !- Surface Type
  {babda557-2da5-46d1-be87-ac3915adb560}, !- Construction Name
  {bb89b4b3-4d99-48db-a9b4-24c860e455a4}, !- Space Name
  Outdoors,                               !- Outside Boundary Condition
  ,                                       !- Outside Boundary Condition Object
  SunExposed,                             !- Sun Exposure
  WindExposed,                            !- Wind Exposure
  ,                                       !- View Factor to Ground
  ,                                       !- Number of Vertices
  13.6310703908387, 0, 2.4384,            !- X,Y,Z Vertex 1 {m}
  13.6310703908387, 0, 0,                 !- X,Y,Z Vertex 2 {m}
  13.6310703908387, 6.81553519541936, 0,  !- X,Y,Z Vertex 3 {m}
  13.6310703908387, 6.81553519541936, 2.4384; !- X,Y,Z Vertex 4 {m}

OS:Surface,
  {1de9c870-fade-4f61-bac7-d9286d61b6a3}, !- Handle
  Surface 5,                              !- Name
  Wall,                                   !- Surface Type
  {babda557-2da5-46d1-be87-ac3915adb560}, !- Construction Name
  {bb89b4b3-4d99-48db-a9b4-24c860e455a4}, !- Space Name
  Outdoors,                               !- Outside Boundary Condition
  ,                                       !- Outside Boundary Condition Object
  SunExposed,                             !- Sun Exposure
  WindExposed,                            !- Wind Exposure
  ,                                       !- View Factor to Ground
  ,                                       !- Number of Vertices
  0, 0, 2.4384,                           !- X,Y,Z Vertex 1 {m}
  0, 0, 0,                                !- X,Y,Z Vertex 2 {m}
  13.6310703908387, 0, 0,                 !- X,Y,Z Vertex 3 {m}
  13.6310703908387, 0, 2.4384;            !- X,Y,Z Vertex 4 {m}

OS:Surface,
  {1993ec40-e4cb-4001-8023-2802c26132cc}, !- Handle
  Surface 6,                              !- Name
  RoofCeiling,                            !- Surface Type
  {de17d6d8-954f-464d-8368-73e75629ca9e}, !- Construction Name
  {bb89b4b3-4d99-48db-a9b4-24c860e455a4}, !- Space Name
  Surface,                                !- Outside Boundary Condition
  {52ffac72-dd02-4273-b600-6554b478a21c}, !- Outside Boundary Condition Object
  NoSun,                                  !- Sun Exposure
  NoWind,                                 !- Wind Exposure
  ,                                       !- View Factor to Ground
  ,                                       !- Number of Vertices
  13.6310703908387, 0, 2.4384,            !- X,Y,Z Vertex 1 {m}
  13.6310703908387, 6.81553519541936, 2.4384, !- X,Y,Z Vertex 2 {m}
  0, 6.81553519541936, 2.4384,            !- X,Y,Z Vertex 3 {m}
  0, 0, 2.4384;                           !- X,Y,Z Vertex 4 {m}

OS:Space,
  {c135a59f-8e46-4acf-95b8-0b35a0586465}, !- Handle
  living space|story 2,                   !- Name
  ,                                       !- Space Type Name
  ,                                       !- Default Construction Set Name
  ,                                       !- Default Schedule Set Name
  -0,                                     !- Direction of Relative North {deg}
  0,                                      !- X Origin {m}
  0,                                      !- Y Origin {m}
  2.4384,                                 !- Z Origin {m}
  ,                                       !- Building Story Name
  {9faae84e-6c27-4b57-95ab-a93acc5591ca}, !- Thermal Zone Name
  ,                                       !- Part of Total Floor Area
  ,                                       !- Design Specification Outdoor Air Object Name
  {09a88062-4c77-466e-b1ad-c845a44bcb35}; !- Building Unit Name

OS:Surface,
  {52ffac72-dd02-4273-b600-6554b478a21c}, !- Handle
  Surface 7,                              !- Name
  Floor,                                  !- Surface Type
  {de17d6d8-954f-464d-8368-73e75629ca9e}, !- Construction Name
  {c135a59f-8e46-4acf-95b8-0b35a0586465}, !- Space Name
  Surface,                                !- Outside Boundary Condition
  {1993ec40-e4cb-4001-8023-2802c26132cc}, !- Outside Boundary Condition Object
  NoSun,                                  !- Sun Exposure
  NoWind,                                 !- Wind Exposure
  ,                                       !- View Factor to Ground
  ,                                       !- Number of Vertices
  0, 0, 0,                                !- X,Y,Z Vertex 1 {m}
  0, 6.81553519541936, 0,                 !- X,Y,Z Vertex 2 {m}
  13.6310703908387, 6.81553519541936, 0,  !- X,Y,Z Vertex 3 {m}
  13.6310703908387, 0, 0;                 !- X,Y,Z Vertex 4 {m}

OS:Surface,
  {d992ee4d-a9b9-4ae4-bfa5-25ac1f1e6ab7}, !- Handle
  Surface 8,                              !- Name
  Wall,                                   !- Surface Type
  {babda557-2da5-46d1-be87-ac3915adb560}, !- Construction Name
  {c135a59f-8e46-4acf-95b8-0b35a0586465}, !- Space Name
  Outdoors,                               !- Outside Boundary Condition
  ,                                       !- Outside Boundary Condition Object
  SunExposed,                             !- Sun Exposure
  WindExposed,                            !- Wind Exposure
  ,                                       !- View Factor to Ground
  ,                                       !- Number of Vertices
  0, 6.81553519541936, 2.4384,            !- X,Y,Z Vertex 1 {m}
  0, 6.81553519541936, 0,                 !- X,Y,Z Vertex 2 {m}
  0, 0, 0,                                !- X,Y,Z Vertex 3 {m}
  0, 0, 2.4384;                           !- X,Y,Z Vertex 4 {m}

OS:Surface,
  {335abeab-350c-4e05-a3b4-cb6467273c49}, !- Handle
  Surface 9,                              !- Name
  Wall,                                   !- Surface Type
  {babda557-2da5-46d1-be87-ac3915adb560}, !- Construction Name
  {c135a59f-8e46-4acf-95b8-0b35a0586465}, !- Space Name
  Outdoors,                               !- Outside Boundary Condition
  ,                                       !- Outside Boundary Condition Object
  SunExposed,                             !- Sun Exposure
  WindExposed,                            !- Wind Exposure
  ,                                       !- View Factor to Ground
  ,                                       !- Number of Vertices
  13.6310703908387, 6.81553519541936, 2.4384, !- X,Y,Z Vertex 1 {m}
  13.6310703908387, 6.81553519541936, 0,  !- X,Y,Z Vertex 2 {m}
  0, 6.81553519541936, 0,                 !- X,Y,Z Vertex 3 {m}
  0, 6.81553519541936, 2.4384;            !- X,Y,Z Vertex 4 {m}

OS:Surface,
  {bf4e5b9b-10a9-4f20-b2ac-e841d3b5eddd}, !- Handle
  Surface 10,                             !- Name
  Wall,                                   !- Surface Type
  {babda557-2da5-46d1-be87-ac3915adb560}, !- Construction Name
  {c135a59f-8e46-4acf-95b8-0b35a0586465}, !- Space Name
  Outdoors,                               !- Outside Boundary Condition
  ,                                       !- Outside Boundary Condition Object
  SunExposed,                             !- Sun Exposure
  WindExposed,                            !- Wind Exposure
  ,                                       !- View Factor to Ground
  ,                                       !- Number of Vertices
  13.6310703908387, 0, 2.4384,            !- X,Y,Z Vertex 1 {m}
  13.6310703908387, 0, 0,                 !- X,Y,Z Vertex 2 {m}
  13.6310703908387, 6.81553519541936, 0,  !- X,Y,Z Vertex 3 {m}
  13.6310703908387, 6.81553519541936, 2.4384; !- X,Y,Z Vertex 4 {m}

OS:Surface,
  {de49f82d-8ac3-458b-9d71-f0c68f32579d}, !- Handle
  Surface 11,                             !- Name
  Wall,                                   !- Surface Type
  {babda557-2da5-46d1-be87-ac3915adb560}, !- Construction Name
  {c135a59f-8e46-4acf-95b8-0b35a0586465}, !- Space Name
  Outdoors,                               !- Outside Boundary Condition
  ,                                       !- Outside Boundary Condition Object
  SunExposed,                             !- Sun Exposure
  WindExposed,                            !- Wind Exposure
  ,                                       !- View Factor to Ground
  ,                                       !- Number of Vertices
  0, 0, 2.4384,                           !- X,Y,Z Vertex 1 {m}
  0, 0, 0,                                !- X,Y,Z Vertex 2 {m}
  13.6310703908387, 0, 0,                 !- X,Y,Z Vertex 3 {m}
  13.6310703908387, 0, 2.4384;            !- X,Y,Z Vertex 4 {m}

OS:Surface,
  {26743830-a7e2-497b-b406-b2550628f7ab}, !- Handle
  Surface 12,                             !- Name
  RoofCeiling,                            !- Surface Type
  {10530e2d-f79f-497c-b14e-e6e443c40373}, !- Construction Name
  {c135a59f-8e46-4acf-95b8-0b35a0586465}, !- Space Name
  Surface,                                !- Outside Boundary Condition
  {9a874984-c394-4564-b957-434ab2cac86b}, !- Outside Boundary Condition Object
  NoSun,                                  !- Sun Exposure
  NoWind,                                 !- Wind Exposure
  ,                                       !- View Factor to Ground
  ,                                       !- Number of Vertices
  13.6310703908387, 0, 2.4384,            !- X,Y,Z Vertex 1 {m}
  13.6310703908387, 6.81553519541936, 2.4384, !- X,Y,Z Vertex 2 {m}
  0, 6.81553519541936, 2.4384,            !- X,Y,Z Vertex 3 {m}
  0, 0, 2.4384;                           !- X,Y,Z Vertex 4 {m}

OS:Surface,
  {9a874984-c394-4564-b957-434ab2cac86b}, !- Handle
  Surface 13,                             !- Name
  Floor,                                  !- Surface Type
  {b19d21e7-6e7e-4d64-a34f-717aa0df5d87}, !- Construction Name
  {81069bc3-720e-4a0f-b06a-caed10b4d6cf}, !- Space Name
  Surface,                                !- Outside Boundary Condition
  {26743830-a7e2-497b-b406-b2550628f7ab}, !- Outside Boundary Condition Object
  NoSun,                                  !- Sun Exposure
  NoWind,                                 !- Wind Exposure
  ,                                       !- View Factor to Ground
  ,                                       !- Number of Vertices
  0, 6.81553519541936, 0,                 !- X,Y,Z Vertex 1 {m}
  13.6310703908387, 6.81553519541936, 0,  !- X,Y,Z Vertex 2 {m}
  13.6310703908387, 0, 0,                 !- X,Y,Z Vertex 3 {m}
  0, 0, 0;                                !- X,Y,Z Vertex 4 {m}

OS:Surface,
  {ae6fc669-2e01-4069-a9eb-628966e27876}, !- Handle
  Surface 14,                             !- Name
  RoofCeiling,                            !- Surface Type
  {cbc17736-bbb8-4b1d-b1e4-206c8be2be85}, !- Construction Name
  {81069bc3-720e-4a0f-b06a-caed10b4d6cf}, !- Space Name
  Outdoors,                               !- Outside Boundary Condition
  ,                                       !- Outside Boundary Condition Object
  SunExposed,                             !- Sun Exposure
  WindExposed,                            !- Wind Exposure
  ,                                       !- View Factor to Ground
  ,                                       !- Number of Vertices
  13.6310703908387, 3.40776759770968, 1.70388379885484, !- X,Y,Z Vertex 1 {m}
  0, 3.40776759770968, 1.70388379885484,  !- X,Y,Z Vertex 2 {m}
  0, 0, 0,                                !- X,Y,Z Vertex 3 {m}
  13.6310703908387, 0, 0;                 !- X,Y,Z Vertex 4 {m}

OS:Surface,
  {63de431c-0d30-47f7-8eb7-5daccc3d34ef}, !- Handle
  Surface 15,                             !- Name
  RoofCeiling,                            !- Surface Type
  {cbc17736-bbb8-4b1d-b1e4-206c8be2be85}, !- Construction Name
  {81069bc3-720e-4a0f-b06a-caed10b4d6cf}, !- Space Name
  Outdoors,                               !- Outside Boundary Condition
  ,                                       !- Outside Boundary Condition Object
  SunExposed,                             !- Sun Exposure
  WindExposed,                            !- Wind Exposure
  ,                                       !- View Factor to Ground
  ,                                       !- Number of Vertices
  0, 3.40776759770968, 1.70388379885484,  !- X,Y,Z Vertex 1 {m}
  13.6310703908387, 3.40776759770968, 1.70388379885484, !- X,Y,Z Vertex 2 {m}
  13.6310703908387, 6.81553519541936, 0,  !- X,Y,Z Vertex 3 {m}
  0, 6.81553519541936, 0;                 !- X,Y,Z Vertex 4 {m}

OS:Surface,
  {25a98e5d-5a11-4331-bd7e-0df1abc4534d}, !- Handle
  Surface 16,                             !- Name
  Wall,                                   !- Surface Type
  {28969dbb-7f76-4b89-874c-4741479608f0}, !- Construction Name
  {81069bc3-720e-4a0f-b06a-caed10b4d6cf}, !- Space Name
  Outdoors,                               !- Outside Boundary Condition
  ,                                       !- Outside Boundary Condition Object
  SunExposed,                             !- Sun Exposure
  WindExposed,                            !- Wind Exposure
  ,                                       !- View Factor to Ground
  ,                                       !- Number of Vertices
  0, 3.40776759770968, 1.70388379885484,  !- X,Y,Z Vertex 1 {m}
  0, 6.81553519541936, 0,                 !- X,Y,Z Vertex 2 {m}
  0, 0, 0;                                !- X,Y,Z Vertex 3 {m}

OS:Surface,
  {865b1e75-e560-438b-81fc-09148ee8ed7b}, !- Handle
  Surface 17,                             !- Name
  Wall,                                   !- Surface Type
  {28969dbb-7f76-4b89-874c-4741479608f0}, !- Construction Name
  {81069bc3-720e-4a0f-b06a-caed10b4d6cf}, !- Space Name
  Outdoors,                               !- Outside Boundary Condition
  ,                                       !- Outside Boundary Condition Object
  SunExposed,                             !- Sun Exposure
  WindExposed,                            !- Wind Exposure
  ,                                       !- View Factor to Ground
  ,                                       !- Number of Vertices
  13.6310703908387, 3.40776759770968, 1.70388379885484, !- X,Y,Z Vertex 1 {m}
  13.6310703908387, 0, 0,                 !- X,Y,Z Vertex 2 {m}
  13.6310703908387, 6.81553519541936, 0;  !- X,Y,Z Vertex 3 {m}

OS:Space,
  {81069bc3-720e-4a0f-b06a-caed10b4d6cf}, !- Handle
  unfinished attic space,                 !- Name
  ,                                       !- Space Type Name
  ,                                       !- Default Construction Set Name
  ,                                       !- Default Schedule Set Name
  -0,                                     !- Direction of Relative North {deg}
  0,                                      !- X Origin {m}
  0,                                      !- Y Origin {m}
  4.8768,                                 !- Z Origin {m}
  ,                                       !- Building Story Name
  {368c2af1-5b19-4b14-b585-3135c3e214f7}, !- Thermal Zone Name
  ,                                       !- Part of Total Floor Area
  ,                                       !- Design Specification Outdoor Air Object Name
  {09a88062-4c77-466e-b1ad-c845a44bcb35}; !- Building Unit Name

OS:ThermalZone,
  {368c2af1-5b19-4b14-b585-3135c3e214f7}, !- Handle
  unfinished attic zone,                  !- Name
  ,                                       !- Multiplier
  ,                                       !- Ceiling Height {m}
  ,                                       !- Volume {m3}
  ,                                       !- Floor Area {m2}
  ,                                       !- Zone Inside Convection Algorithm
  ,                                       !- Zone Outside Convection Algorithm
  ,                                       !- Zone Conditioning Equipment List Name
  {852c35fe-3252-4be3-af42-a3d1dfa2ceab}, !- Zone Air Inlet Port List
  {f22db9d4-bef0-43dd-a0e1-e43b5d8cec55}, !- Zone Air Exhaust Port List
  {93b49e81-2c0c-45c9-9ab3-002d7bd39b43}, !- Zone Air Node Name
  ,                                       !- Zone Return Air Node Name
  ,                                       !- Primary Daylighting Control Name
  ,                                       !- Fraction of Zone Controlled by Primary Daylighting Control
  ,                                       !- Secondary Daylighting Control Name
  ,                                       !- Fraction of Zone Controlled by Secondary Daylighting Control
  ,                                       !- Illuminance Map Name
  ,                                       !- Group Rendering Name
  ,                                       !- Thermostat Name
  No;                                     !- Use Ideal Air Loads

OS:Node,
  {eafbb684-6378-46ea-bf59-7ff32cbaad13}, !- Handle
  Node 2,                                 !- Name
  {93b49e81-2c0c-45c9-9ab3-002d7bd39b43}, !- Inlet Port
  ;                                       !- Outlet Port

OS:Connection,
  {93b49e81-2c0c-45c9-9ab3-002d7bd39b43}, !- Handle
  {f2f18ddd-e6ab-4199-81c4-0bb1dd669b3b}, !- Name
  {368c2af1-5b19-4b14-b585-3135c3e214f7}, !- Source Object
  11,                                     !- Outlet Port
  {eafbb684-6378-46ea-bf59-7ff32cbaad13}, !- Target Object
  2;                                      !- Inlet Port

OS:PortList,
  {852c35fe-3252-4be3-af42-a3d1dfa2ceab}, !- Handle