!- NOTE: Auto-generated from /test/osw_files/SFD_2000sqft_2story_SL_UA_AllLayersButExteriorFinish_CeilingIns.osw

OS:Version,
  {fc003c06-618b-4051-9b37-6b6f71b12672}, !- Handle
  2.2.0;                                  !- Version Identifier

OS:Building,
  {bf305633-c5a1-4881-9edf-ca5e1a8e1274}, !- Handle
  Building,                               !- Name
  ,                                       !- Building Sector Type
  ,                                       !- North Axis {deg}
  ,                                       !- Nominal Floor to Floor Height {m}
  ,                                       !- Space Type Name
  ,                                       !- Default Construction Set Name
  ,                                       !- Default Schedule Set Name
  2,                                      !- Standards Number of Stories
  2,                                      !- Standards Number of Above Ground Stories
  singlefamilydetached,                   !- Standards Building Type
  1;                                      !- Standards Number of Living Units

OS:YearDescription,
  {513d8dda-86cb-442a-b01c-1f7f0e0ac70e}; !- Handle

OS:SimulationControl,
  {2c487a4c-bac9-4ac5-b669-1e49d9da7c2b}, !- Handle
  ,                                       !- Do Zone Sizing Calculation
  ,                                       !- Do System Sizing Calculation
  ,                                       !- Do Plant Sizing Calculation
  No,                                     !- Run Simulation for Sizing Periods
  ;                                       !- Run Simulation for Weather File Run Periods

OS:Timestep,
  {4ebc9f1e-4707-402e-9844-67eb1ffbd522}, !- Handle
  6;                                      !- Number of Timesteps per Hour

OS:RunPeriod,
  {28df894d-6af9-4fb8-8f56-df1753344aa3}, !- Handle
  Run Period,                             !- Name
  1,                                      !- Begin Month
  1,                                      !- Begin Day of Month
  12,                                     !- End Month
  31,                                     !- End Day of Month
  ,                                       !- Use Weather File Holidays and Special Days
  ,                                       !- Use Weather File Daylight Saving Period
  ,                                       !- Apply Weekend Holiday Rule
  ,                                       !- Use Weather File Rain Indicators
  ,                                       !- Use Weather File Snow Indicators
  ;                                       !- Number of Times Runperiod to be Repeated

OS:Sizing:Parameters,
  {dde5af6f-7923-4600-a28a-7556673a0266}, !- Handle
  1.0,                                    !- Heating Sizing Factor
  1.0;                                    !- Cooling Sizing Factor

OS:ShadowCalculation,
  {ca758bea-4416-4626-9bba-3d8795c79bd6}, !- Handle
  20,                                     !- Calculation Frequency
  200;                                    !- Maximum Figures in Shadow Overlap Calculations

OS:SurfaceConvectionAlgorithm:Inside,
  {aaabfc36-718a-4ab0-b622-f186ebb45230}, !- Handle
  TARP;                                   !- Algorithm

OS:SurfaceConvectionAlgorithm:Outside,
  {9a0a9f6f-4bbd-4b12-a121-9492a1fcd7d6}, !- Handle
  DOE-2;                                  !- Algorithm

OS:HeatBalanceAlgorithm,
  {9d93e563-e1e0-46d7-9e39-d1c8aceb7212}, !- Handle
  ConductionTransferFunction,             !- Algorithm
  200;                                    !- Surface Temperature Upper Limit {C}

OS:ZoneCapacitanceMultiplier:ResearchSpecial,
  {6bfced16-b16f-47f6-8223-f7e267d75d19}, !- Handle
  ,                                       !- Temperature Capacity Multiplier
  15,                                     !- Humidity Capacity Multiplier
  ;                                       !- Carbon Dioxide Capacity Multiplier

OS:ThermalZone,
  {b29cb722-e211-4920-8e54-4bb2ad9a4706}, !- Handle
  living zone,                            !- Name
  ,                                       !- Multiplier
  ,                                       !- Ceiling Height {m}
  ,                                       !- Volume {m3}
  ,                                       !- Floor Area {m2}
  ,                                       !- Zone Inside Convection Algorithm
  ,                                       !- Zone Outside Convection Algorithm
  ,                                       !- Zone Conditioning Equipment List Name
  {0113fd52-a447-47a3-9a6a-f98acf8b4fcb}, !- Zone Air Inlet Port List
  {2207e7c8-f392-41ac-90d5-1da06fef44ba}, !- Zone Air Exhaust Port List
  {bbea5b99-777e-463d-b67c-816b704d78d6}, !- Zone Air Node Name
  ,                                       !- Zone Return Air Node Name
  ,                                       !- Primary Daylighting Control Name
  ,                                       !- Fraction of Zone Controlled by Primary Daylighting Control
  ,                                       !- Secondary Daylighting Control Name
  ,                                       !- Fraction of Zone Controlled by Secondary Daylighting Control
  ,                                       !- Illuminance Map Name
  ,                                       !- Group Rendering Name
  ,                                       !- Thermostat Name
  No;                                     !- Use Ideal Air Loads

OS:Node,
  {4faa2660-89c9-4eb8-a3f7-727cc288f63b}, !- Handle
  Node 1,                                 !- Name
  {bbea5b99-777e-463d-b67c-816b704d78d6}, !- Inlet Port
  ;                                       !- Outlet Port

OS:Connection,
  {bbea5b99-777e-463d-b67c-816b704d78d6}, !- Handle
  {41e3dd79-0ae9-4006-92da-e5c997541a69}, !- Name
  {b29cb722-e211-4920-8e54-4bb2ad9a4706}, !- Source Object
  11,                                     !- Outlet Port
  {4faa2660-89c9-4eb8-a3f7-727cc288f63b}, !- Target Object
  2;                                      !- Inlet Port

OS:PortList,
  {0113fd52-a447-47a3-9a6a-f98acf8b4fcb}, !- Handle
  {9cc69a27-7556-4468-8253-bf4cb397b721}, !- Name
  {b29cb722-e211-4920-8e54-4bb2ad9a4706}; !- HVAC Component

OS:PortList,
  {2207e7c8-f392-41ac-90d5-1da06fef44ba}, !- Handle
  {da3a22e4-0362-48dd-adf6-01d73e3d04a7}, !- Name
  {b29cb722-e211-4920-8e54-4bb2ad9a4706}; !- HVAC Component

OS:Sizing:Zone,
  {cdca01c2-126e-4114-b04c-5eab74b67575}, !- Handle
  {b29cb722-e211-4920-8e54-4bb2ad9a4706}, !- Zone or ZoneList Name
  SupplyAirTemperature,                   !- Zone Cooling Design Supply Air Temperature Input Method
  14,                                     !- Zone Cooling Design Supply Air Temperature {C}
  11.11,                                  !- Zone Cooling Design Supply Air Temperature Difference {deltaC}
  SupplyAirTemperature,                   !- Zone Heating Design Supply Air Temperature Input Method
  40,                                     !- Zone Heating Design Supply Air Temperature {C}
  11.11,                                  !- Zone Heating Design Supply Air Temperature Difference {deltaC}
  0.0085,                                 !- Zone Cooling Design Supply Air Humidity Ratio {kg-H2O/kg-air}
  0.008,                                  !- Zone Heating Design Supply Air Humidity Ratio {kg-H2O/kg-air}
  ,                                       !- Zone Heating Sizing Factor
  ,                                       !- Zone Cooling Sizing Factor
  DesignDay,                              !- Cooling Design Air Flow Method
  ,                                       !- Cooling Design Air Flow Rate {m3/s}
  ,                                       !- Cooling Minimum Air Flow per Zone Floor Area {m3/s-m2}
  ,                                       !- Cooling Minimum Air Flow {m3/s}
  ,                                       !- Cooling Minimum Air Flow Fraction
  DesignDay,                              !- Heating Design Air Flow Method
  ,                                       !- Heating Design Air Flow Rate {m3/s}
  ,                                       !- Heating Maximum Air Flow per Zone Floor Area {m3/s-m2}
  ,                                       !- Heating Maximum Air Flow {m3/s}
  ,                                       !- Heating Maximum Air Flow Fraction
  ,                                       !- Design Zone Air Distribution Effectiveness in Cooling Mode
  ,                                       !- Design Zone Air Distribution Effectiveness in Heating Mode
  No,                                     !- Account for Dedicated Outdoor Air System
  NeutralSupplyAir,                       !- Dedicated Outdoor Air System Control Strategy
  autosize,                               !- Dedicated Outdoor Air Low Setpoint Temperature for Design {C}
  autosize;                               !- Dedicated Outdoor Air High Setpoint Temperature for Design {C}

OS:ZoneHVAC:EquipmentList,
  {ac451279-3978-47f0-ae8d-8908c5c1a7af}, !- Handle
  Zone HVAC Equipment List 1,             !- Name
  {b29cb722-e211-4920-8e54-4bb2ad9a4706}; !- Thermal Zone

OS:Space,
  {4a1a32c4-a775-43b8-a488-c3b4028978e7}, !- Handle
  living space,                           !- Name
  {b1f7d012-3ae5-4726-b864-23c42e8d649e}, !- Space Type Name
  ,                                       !- Default Construction Set Name
  ,                                       !- Default Schedule Set Name
  -0,                                     !- Direction of Relative North {deg}
  0,                                      !- X Origin {m}
  0,                                      !- Y Origin {m}
  0,                                      !- Z Origin {m}
  ,                                       !- Building Story Name
  {b29cb722-e211-4920-8e54-4bb2ad9a4706}, !- Thermal Zone Name
  ,                                       !- Part of Total Floor Area
  ,                                       !- Design Specification Outdoor Air Object Name
  {29c2de6a-9f43-427b-bc0f-f381a8c5737e}; !- Building Unit Name

OS:Surface,
  {6939f2af-ebc5-4fec-b291-226dd03a5e64}, !- Handle
  Surface 1,                              !- Name
  Floor,                                  !- Surface Type
  ,                                       !- Construction Name
  {4a1a32c4-a775-43b8-a488-c3b4028978e7}, !- Space Name
  Ground,                                 !- Outside Boundary Condition
  ,                                       !- Outside Boundary Condition Object
  NoSun,                                  !- Sun Exposure
  NoWind,                                 !- Wind Exposure
  ,                                       !- View Factor to Ground
  ,                                       !- Number of Vertices
  0, 0, 0,                                !- X,Y,Z Vertex 1 {m}
  0, 6.81553519541936, 0,                 !- X,Y,Z Vertex 2 {m}
  13.6310703908387, 6.81553519541936, 0,  !- X,Y,Z Vertex 3 {m}
  13.6310703908387, 0, 0;                 !- X,Y,Z Vertex 4 {m}

OS:Surface,
  {99c5f4bf-a5c2-4f00-b343-b4a20a83eb36}, !- Handle
  Surface 2,                              !- Name
  Wall,                                   !- Surface Type
  {fcbfdd1b-b59a-4c09-8f2b-5d71e1f075b6}, !- Construction Name
  {4a1a32c4-a775-43b8-a488-c3b4028978e7}, !- Space Name
  Outdoors,                               !- Outside Boundary Condition
  ,                                       !- Outside Boundary Condition Object
  SunExposed,                             !- Sun Exposure
  WindExposed,                            !- Wind Exposure
  ,                                       !- View Factor to Ground
  ,                                       !- Number of Vertices
  0, 6.81553519541936, 2.4384,            !- X,Y,Z Vertex 1 {m}
  0, 6.81553519541936, 0,                 !- X,Y,Z Vertex 2 {m}
  0, 0, 0,                                !- X,Y,Z Vertex 3 {m}
  0, 0, 2.4384;                           !- X,Y,Z Vertex 4 {m}

OS:Surface,
  {fbb44129-d11b-4e1f-ace0-c62a8a3ba609}, !- Handle
  Surface 3,                              !- Name
  Wall,                                   !- Surface Type
  {fcbfdd1b-b59a-4c09-8f2b-5d71e1f075b6}, !- Construction Name
  {4a1a32c4-a775-43b8-a488-c3b4028978e7}, !- Space Name
  Outdoors,                               !- Outside Boundary Condition
  ,                                       !- Outside Boundary Condition Object
  SunExposed,                             !- Sun Exposure
  WindExposed,                            !- Wind Exposure
  ,                                       !- View Factor to Ground
  ,                                       !- Number of Vertices
  13.6310703908387, 6.81553519541936, 2.4384, !- X,Y,Z Vertex 1 {m}
  13.6310703908387, 6.81553519541936, 0,  !- X,Y,Z Vertex 2 {m}
  0, 6.81553519541936, 0,                 !- X,Y,Z Vertex 3 {m}
  0, 6.81553519541936, 2.4384;            !- X,Y,Z Vertex 4 {m}

OS:Surface,
  {f9faedc4-f4f0-4976-9169-0005f85d908d}, !- Handle
  Surface 4,                              !- Name
  Wall,                                   !- Surface Type
  {fcbfdd1b-b59a-4c09-8f2b-5d71e1f075b6}, !- Construction Name
  {4a1a32c4-a775-43b8-a488-c3b4028978e7}, !- Space Name
  Outdoors,                               !- Outside Boundary Condition
  ,                                       !- Outside Boundary Condition Object
  SunExposed,                             !- Sun Exposure
  WindExposed,                            !- Wind Exposure
  ,                                       !- View Factor to Ground
  ,                                       !- Number of Vertices
  13.6310703908387, 0, 2.4384,            !- X,Y,Z Vertex 1 {m}
  13.6310703908387, 0, 0,                 !- X,Y,Z Vertex 2 {m}
  13.6310703908387, 6.81553519541936, 0,  !- X,Y,Z Vertex 3 {m}
  13.6310703908387, 6.81553519541936, 2.4384; !- X,Y,Z Vertex 4 {m}

OS:Surface,
  {0f788abd-54ce-4d98-ab6a-1296fc72fcc0}, !- Handle
  Surface 5,                              !- Name
  Wall,                                   !- Surface Type
  {fcbfdd1b-b59a-4c09-8f2b-5d71e1f075b6}, !- Construction Name
  {4a1a32c4-a775-43b8-a488-c3b4028978e7}, !- Space Name
  Outdoors,                               !- Outside Boundary Condition
  ,                                       !- Outside Boundary Condition Object
  SunExposed,                             !- Sun Exposure
  WindExposed,                            !- Wind Exposure
  ,                                       !- View Factor to Ground
  ,                                       !- Number of Vertices
  0, 0, 2.4384,                           !- X,Y,Z Vertex 1 {m}
  0, 0, 0,                                !- X,Y,Z Vertex 2 {m}
  13.6310703908387, 0, 0,                 !- X,Y,Z Vertex 3 {m}
  13.6310703908387, 0, 2.4384;            !- X,Y,Z Vertex 4 {m}

OS:Surface,
  {052a40df-873a-4406-a024-da4fdce3fabe}, !- Handle
  Surface 6,                              !- Name
  RoofCeiling,                            !- Surface Type
  {c0cc3387-dfc0-47ca-b4c6-2376e9de8495}, !- Construction Name
  {4a1a32c4-a775-43b8-a488-c3b4028978e7}, !- Space Name
  Surface,                                !- Outside Boundary Condition
  {fe218996-60c7-4f17-acbe-1cdde920a89d}, !- Outside Boundary Condition Object
  NoSun,                                  !- Sun Exposure
  NoWind,                                 !- Wind Exposure
  ,                                       !- View Factor to Ground
  ,                                       !- Number of Vertices
  13.6310703908387, 0, 2.4384,            !- X,Y,Z Vertex 1 {m}
  13.6310703908387, 6.81553519541936, 2.4384, !- X,Y,Z Vertex 2 {m}
  0, 6.81553519541936, 2.4384,            !- X,Y,Z Vertex 3 {m}
  0, 0, 2.4384;                           !- X,Y,Z Vertex 4 {m}

OS:SpaceType,
  {b1f7d012-3ae5-4726-b864-23c42e8d649e}, !- Handle
  Space Type 1,                           !- Name
  ,                                       !- Default Construction Set Name
  ,                                       !- Default Schedule Set Name
  ,                                       !- Group Rendering Name
  ,                                       !- Design Specification Outdoor Air Object Name
  ,                                       !- Standards Building Type
  living;                                 !- Standards Space Type

OS:Space,
  {7df35086-f51c-4756-9622-c9da1aed1d34}, !- Handle
  living space|story 2,                   !- Name
  {b1f7d012-3ae5-4726-b864-23c42e8d649e}, !- Space Type Name
  ,                                       !- Default Construction Set Name
  ,                                       !- Default Schedule Set Name
  -0,                                     !- Direction of Relative North {deg}
  0,                                      !- X Origin {m}
  0,                                      !- Y Origin {m}
  2.4384,                                 !- Z Origin {m}
  ,                                       !- Building Story Name
  {b29cb722-e211-4920-8e54-4bb2ad9a4706}, !- Thermal Zone Name
  ,                                       !- Part of Total Floor Area
  ,                                       !- Design Specification Outdoor Air Object Name
  {29c2de6a-9f43-427b-bc0f-f381a8c5737e}; !- Building Unit Name

OS:Surface,
  {fe218996-60c7-4f17-acbe-1cdde920a89d}, !- Handle
  Surface 7,                              !- Name
  Floor,                                  !- Surface Type
  {c0cc3387-dfc0-47ca-b4c6-2376e9de8495}, !- Construction Name
  {7df35086-f51c-4756-9622-c9da1aed1d34}, !- Space Name
  Surface,                                !- Outside Boundary Condition
  {052a40df-873a-4406-a024-da4fdce3fabe}, !- Outside Boundary Condition Object
  NoSun,                                  !- Sun Exposure
  NoWind,                                 !- Wind Exposure
  ,                                       !- View Factor to Ground
  ,                                       !- Number of Vertices
  0, 0, 0,                                !- X,Y,Z Vertex 1 {m}
  0, 6.81553519541936, 0,                 !- X,Y,Z Vertex 2 {m}
  13.6310703908387, 6.81553519541936, 0,  !- X,Y,Z Vertex 3 {m}
  13.6310703908387, 0, 0;                 !- X,Y,Z Vertex 4 {m}

OS:Surface,
  {2d0a95ec-f9a2-4e67-8d85-d79a95a35247}, !- Handle
  Surface 8,                              !- Name
  Wall,                                   !- Surface Type
  {fcbfdd1b-b59a-4c09-8f2b-5d71e1f075b6}, !- Construction Name
  {7df35086-f51c-4756-9622-c9da1aed1d34}, !- Space Name
  Outdoors,                               !- Outside Boundary Condition
  ,                                       !- Outside Boundary Condition Object
  SunExposed,                             !- Sun Exposure
  WindExposed,                            !- Wind Exposure
  ,                                       !- View Factor to Ground
  ,                                       !- Number of Vertices
  0, 6.81553519541936, 2.4384,            !- X,Y,Z Vertex 1 {m}
  0, 6.81553519541936, 0,                 !- X,Y,Z Vertex 2 {m}
  0, 0, 0,                                !- X,Y,Z Vertex 3 {m}
  0, 0, 2.4384;                           !- X,Y,Z Vertex 4 {m}

OS:Surface,
  {301b8219-56b2-4df7-9462-dd76eaca5add}, !- Handle
  Surface 9,                              !- Name
  Wall,                                   !- Surface Type
  {fcbfdd1b-b59a-4c09-8f2b-5d71e1f075b6}, !- Construction Name
  {7df35086-f51c-4756-9622-c9da1aed1d34}, !- Space Name
  Outdoors,                               !- Outside Boundary Condition
  ,                                       !- Outside Boundary Condition Object
  SunExposed,                             !- Sun Exposure
  WindExposed,                            !- Wind Exposure
  ,                                       !- View Factor to Ground
  ,                                       !- Number of Vertices
  13.6310703908387, 6.81553519541936, 2.4384, !- X,Y,Z Vertex 1 {m}
  13.6310703908387, 6.81553519541936, 0,  !- X,Y,Z Vertex 2 {m}
  0, 6.81553519541936, 0,                 !- X,Y,Z Vertex 3 {m}
  0, 6.81553519541936, 2.4384;            !- X,Y,Z Vertex 4 {m}

OS:Surface,
  {365ce98a-b864-43e6-8d11-1970cfcaab62}, !- Handle
  Surface 10,                             !- Name
  Wall,                                   !- Surface Type
  {fcbfdd1b-b59a-4c09-8f2b-5d71e1f075b6}, !- Construction Name
  {7df35086-f51c-4756-9622-c9da1aed1d34}, !- Space Name
  Outdoors,                               !- Outside Boundary Condition
  ,                                       !- Outside Boundary Condition Object
  SunExposed,                             !- Sun Exposure
  WindExposed,                            !- Wind Exposure
  ,                                       !- View Factor to Ground
  ,                                       !- Number of Vertices
  13.6310703908387, 0, 2.4384,            !- X,Y,Z Vertex 1 {m}
  13.6310703908387, 0, 0,                 !- X,Y,Z Vertex 2 {m}
  13.6310703908387, 6.81553519541936, 0,  !- X,Y,Z Vertex 3 {m}
  13.6310703908387, 6.81553519541936, 2.4384; !- X,Y,Z Vertex 4 {m}

OS:Surface,
  {9d799c7f-cf8b-4cce-91e1-e9b6f9b2be88}, !- Handle
  Surface 11,                             !- Name
  Wall,                                   !- Surface Type
  {fcbfdd1b-b59a-4c09-8f2b-5d71e1f075b6}, !- Construction Name
  {7df35086-f51c-4756-9622-c9da1aed1d34}, !- Space Name
  Outdoors,                               !- Outside Boundary Condition
  ,                                       !- Outside Boundary Condition Object
  SunExposed,                             !- Sun Exposure
  WindExposed,                            !- Wind Exposure
  ,                                       !- View Factor to Ground
  ,                                       !- Number of Vertices
  0, 0, 2.4384,                           !- X,Y,Z Vertex 1 {m}
  0, 0, 0,                                !- X,Y,Z Vertex 2 {m}
  13.6310703908387, 0, 0,                 !- X,Y,Z Vertex 3 {m}
  13.6310703908387, 0, 2.4384;            !- X,Y,Z Vertex 4 {m}

OS:Surface,
  {edf4e1ba-0c47-4bfa-87a1-f6bd758912de}, !- Handle
  Surface 12,                             !- Name
  RoofCeiling,                            !- Surface Type
  {a7cac8d4-1f1c-41d7-9702-bf65d8c503a0}, !- Construction Name
  {7df35086-f51c-4756-9622-c9da1aed1d34}, !- Space Name
  Surface,                                !- Outside Boundary Condition
  {f828d134-7cb5-4704-80d2-89cf34552f6f}, !- Outside Boundary Condition Object
  NoSun,                                  !- Sun Exposure
  NoWind,                                 !- Wind Exposure
  ,                                       !- View Factor to Ground
  ,                                       !- Number of Vertices
  13.6310703908387, 0, 2.4384,            !- X,Y,Z Vertex 1 {m}
  13.6310703908387, 6.81553519541936, 2.4384, !- X,Y,Z Vertex 2 {m}
  0, 6.81553519541936, 2.4384,            !- X,Y,Z Vertex 3 {m}
  0, 0, 2.4384;                           !- X,Y,Z Vertex 4 {m}

OS:Surface,
  {f828d134-7cb5-4704-80d2-89cf34552f6f}, !- Handle
  Surface 13,                             !- Name
  Floor,                                  !- Surface Type
  {7d6a9fbe-1fb2-498a-8581-03ba3b5dde1d}, !- Construction Name
  {65b24335-e7e8-43eb-b5fd-f28d88105abe}, !- Space Name
  Surface,                                !- Outside Boundary Condition
  {edf4e1ba-0c47-4bfa-87a1-f6bd758912de}, !- Outside Boundary Condition Object
  NoSun,                                  !- Sun Exposure
  NoWind,                                 !- Wind Exposure
  ,                                       !- View Factor to Ground
  ,                                       !- Number of Vertices
  0, 6.81553519541936, 0,                 !- X,Y,Z Vertex 1 {m}
  13.6310703908387, 6.81553519541936, 0,  !- X,Y,Z Vertex 2 {m}
  13.6310703908387, 0, 0,                 !- X,Y,Z Vertex 3 {m}
  0, 0, 0;                                !- X,Y,Z Vertex 4 {m}

OS:Surface,
  {18e90163-fb73-43ef-b2dc-376c31a5d496}, !- Handle
  Surface 14,                             !- Name
  RoofCeiling,                            !- Surface Type
  {f956db58-281d-4599-afcc-126fd06d8b58}, !- Construction Name
  {65b24335-e7e8-43eb-b5fd-f28d88105abe}, !- Space Name
  Outdoors,                               !- Outside Boundary Condition
  ,                                       !- Outside Boundary Condition Object
  SunExposed,                             !- Sun Exposure
  WindExposed,                            !- Wind Exposure
  ,                                       !- View Factor to Ground
  ,                                       !- Number of Vertices
  13.6310703908387, 3.40776759770968, 1.70388379885484, !- X,Y,Z Vertex 1 {m}
  0, 3.40776759770968, 1.70388379885484,  !- X,Y,Z Vertex 2 {m}
  0, 0, 0,                                !- X,Y,Z Vertex 3 {m}
  13.6310703908387, 0, 0;                 !- X,Y,Z Vertex 4 {m}

OS:Surface,
  {ed94dc70-b6fa-4170-8743-25090bad2247}, !- Handle
  Surface 15,                             !- Name
  RoofCeiling,                            !- Surface Type
  {f956db58-281d-4599-afcc-126fd06d8b58}, !- Construction Name
  {65b24335-e7e8-43eb-b5fd-f28d88105abe}, !- Space Name
  Outdoors,                               !- Outside Boundary Condition
  ,                                       !- Outside Boundary Condition Object
  SunExposed,                             !- Sun Exposure
  WindExposed,                            !- Wind Exposure
  ,                                       !- View Factor to Ground
  ,                                       !- Number of Vertices
  0, 3.40776759770968, 1.70388379885484,  !- X,Y,Z Vertex 1 {m}
  13.6310703908387, 3.40776759770968, 1.70388379885484, !- X,Y,Z Vertex 2 {m}
  13.6310703908387, 6.81553519541936, 0,  !- X,Y,Z Vertex 3 {m}
  0, 6.81553519541936, 0;                 !- X,Y,Z Vertex 4 {m}

OS:Surface,
  {32abbb99-9470-4a90-a473-b03f6857d50e}, !- Handle
  Surface 16,                             !- Name
  Wall,                                   !- Surface Type
  {f75b3425-89ff-4eb7-a4c5-994eccde605d}, !- Construction Name
  {65b24335-e7e8-43eb-b5fd-f28d88105abe}, !- Space Name
  Outdoors,                               !- Outside Boundary Condition
  ,                                       !- Outside Boundary Condition Object
  SunExposed,                             !- Sun Exposure
  WindExposed,                            !- Wind Exposure
  ,                                       !- View Factor to Ground
  ,                                       !- Number of Vertices
  0, 3.40776759770968, 1.70388379885484,  !- X,Y,Z Vertex 1 {m}
  0, 6.81553519541936, 0,                 !- X,Y,Z Vertex 2 {m}
  0, 0, 0;                                !- X,Y,Z Vertex 3 {m}

OS:Surface,
  {bb3ea0d3-410b-456f-b6a4-ac20c5080ee8}, !- Handle
  Surface 17,                             !- Name
  Wall,                                   !- Surface Type
  {f75b3425-89ff-4eb7-a4c5-994eccde605d}, !- Construction Name
  {65b24335-e7e8-43eb-b5fd-f28d88105abe}, !- Space Name
  Outdoors,                               !- Outside Boundary Condition
  ,                                       !- Outside Boundary Condition Object
  SunExposed,                             !- Sun Exposure
  WindExposed,                            !- Wind Exposure
  ,                                       !- View Factor to Ground
  ,                                       !- Number of Vertices
  13.6310703908387, 3.40776759770968, 1.70388379885484, !- X,Y,Z Vertex 1 {m}
  13.6310703908387, 0, 0,                 !- X,Y,Z Vertex 2 {m}
  13.6310703908387, 6.81553519541936, 0;  !- X,Y,Z Vertex 3 {m}

OS:Space,
  {65b24335-e7e8-43eb-b5fd-f28d88105abe}, !- Handle
  unfinished attic space,                 !- Name
  {67f22047-db08-4c7f-b8ef-d16a1da2ede7}, !- Space Type Name
  ,                                       !- Default Construction Set Name
  ,                                       !- Default Schedule Set Name
  -0,                                     !- Direction of Relative North {deg}
  0,                                      !- X Origin {m}
  0,                                      !- Y Origin {m}
  4.8768,                                 !- Z Origin {m}
  ,                                       !- Building Story Name
  {d00a732c-8052-4ce2-93e0-a51d9cc8b098}, !- Thermal Zone Name
  ,                                       !- Part of Total Floor Area
  ,                                       !- Design Specification Outdoor Air Object Name
  {29c2de6a-9f43-427b-bc0f-f381a8c5737e}; !- Building Unit Name

OS:ThermalZone,
  {d00a732c-8052-4ce2-93e0-a51d9cc8b098}, !- Handle
  unfinished attic zone,                  !- Name
  ,                                       !- Multiplier
  ,                                       !- Ceiling Height {m}
  ,                                       !- Volume {m3}
  ,                                       !- Floor Area {m2}
  ,                                       !- Zone Inside Convection Algorithm
  ,                                       !- Zone Outside Convection Algorithm
  ,                                       !- Zone Conditioning Equipment List Name
  {da081f87-bb5c-476b-bb09-9c6b84bbb5af}, !- Zone Air Inlet Port List
  {8e7cf2a5-816f-4616-86c8-9d80881fdeaf}, !- Zone Air Exhaust Port List
  {d91004dd-2149-41cc-b7d0-6968e9f86992}, !- Zone Air Node Name
  ,                                       !- Zone Return Air Node Name
  ,                                       !- Primary Daylighting Control Name
  ,                                       !- Fraction of Zone Controlled by Primary Daylighting Control
  ,                                       !- Secondary Daylighting Control Name
  ,                                       !- Fraction of Zone Controlled by Secondary Daylighting Control
  ,                                       !- Illuminance Map Name
  ,                                       !- Group Rendering Name
  ,                                       !- Thermostat Name
  No;                                     !- Use Ideal Air Loads

OS:Node,
  {98af3d77-fdff-4e9f-8da7-1c0845f2c3b7}, !- Handle
  Node 2,                                 !- Name