!- NOTE: Auto-generated from /test/osw_files/SFD_2000sqft_2story_SL_FA_AllLayersButExteriorFinish.osw

OS:Version,
  {a19e4f9d-612c-4474-b90a-056045c721b0}, !- Handle
  2.4.0;                                  !- Version Identifier

OS:Building,
  {bf305633-c5a1-4881-9edf-ca5e1a8e1274}, !- Handle
  Building,                               !- Name
  ,                                       !- Building Sector Type
  ,                                       !- North Axis {deg}
  ,                                       !- Nominal Floor to Floor Height {m}
  ,                                       !- Space Type Name
  ,                                       !- Default Construction Set Name
  ,                                       !- Default Schedule Set Name
  3,                                      !- Standards Number of Stories
  3,                                      !- Standards Number of Above Ground Stories
  singlefamilydetached,                   !- Standards Building Type
  1;                                      !- Standards Number of Living Units

OS:YearDescription,
  {513d8dda-86cb-442a-b01c-1f7f0e0ac70e}; !- Handle

OS:SimulationControl,
  {2c487a4c-bac9-4ac5-b669-1e49d9da7c2b}, !- Handle
  ,                                       !- Do Zone Sizing Calculation
  ,                                       !- Do System Sizing Calculation
  ,                                       !- Do Plant Sizing Calculation
  No,                                     !- Run Simulation for Sizing Periods
  ;                                       !- Run Simulation for Weather File Run Periods

OS:Timestep,
  {4ebc9f1e-4707-402e-9844-67eb1ffbd522}, !- Handle
  6;                                      !- Number of Timesteps per Hour

OS:RunPeriod,
  {28df894d-6af9-4fb8-8f56-df1753344aa3}, !- Handle
  Run Period,                             !- Name
  1,                                      !- Begin Month
  1,                                      !- Begin Day of Month
  12,                                     !- End Month
  31,                                     !- End Day of Month
  ,                                       !- Use Weather File Holidays and Special Days
  ,                                       !- Use Weather File Daylight Saving Period
  ,                                       !- Apply Weekend Holiday Rule
  ,                                       !- Use Weather File Rain Indicators
  ,                                       !- Use Weather File Snow Indicators
  ;                                       !- Number of Times Runperiod to be Repeated

OS:Sizing:Parameters,
  {dde5af6f-7923-4600-a28a-7556673a0266}, !- Handle
  1.0,                                    !- Heating Sizing Factor
  1.0;                                    !- Cooling Sizing Factor

OS:ShadowCalculation,
  {ca758bea-4416-4626-9bba-3d8795c79bd6}, !- Handle
  20,                                     !- Calculation Frequency
  200;                                    !- Maximum Figures in Shadow Overlap Calculations

OS:SurfaceConvectionAlgorithm:Inside,
  {aaabfc36-718a-4ab0-b622-f186ebb45230}, !- Handle
  TARP;                                   !- Algorithm

OS:SurfaceConvectionAlgorithm:Outside,
  {9a0a9f6f-4bbd-4b12-a121-9492a1fcd7d6}, !- Handle
  DOE-2;                                  !- Algorithm

OS:HeatBalanceAlgorithm,
  {9d93e563-e1e0-46d7-9e39-d1c8aceb7212}, !- Handle
  ConductionTransferFunction,             !- Algorithm
  200;                                    !- Surface Temperature Upper Limit {C}

OS:ZoneCapacitanceMultiplier:ResearchSpecial,
  {6bfced16-b16f-47f6-8223-f7e267d75d19}, !- Handle
  ,                                       !- Temperature Capacity Multiplier
  15,                                     !- Humidity Capacity Multiplier
  ;                                       !- Carbon Dioxide Capacity Multiplier

OS:ThermalZone,
  {924df16c-20d3-4c61-a5a6-ebd244884585}, !- Handle
  living zone,                            !- Name
  ,                                       !- Multiplier
  ,                                       !- Ceiling Height {m}
  ,                                       !- Volume {m3}
  ,                                       !- Floor Area {m2}
  ,                                       !- Zone Inside Convection Algorithm
  ,                                       !- Zone Outside Convection Algorithm
  ,                                       !- Zone Conditioning Equipment List Name
  {e8e59a12-873b-4385-9c9e-c65900b5963a}, !- Zone Air Inlet Port List
  {0128f788-5bad-4c87-bdaa-9a09db79cc22}, !- Zone Air Exhaust Port List
  {743858c9-11bd-450d-998f-9357eac69653}, !- Zone Air Node Name
  ,                                       !- Zone Return Air Node Name
  ,                                       !- Primary Daylighting Control Name
  ,                                       !- Fraction of Zone Controlled by Primary Daylighting Control
  ,                                       !- Secondary Daylighting Control Name
  ,                                       !- Fraction of Zone Controlled by Secondary Daylighting Control
  ,                                       !- Illuminance Map Name
  ,                                       !- Group Rendering Name
  ,                                       !- Thermostat Name
  No;                                     !- Use Ideal Air Loads

OS:Node,
  {94a65961-2e80-4f17-959d-f65aa151a6ca}, !- Handle
  Node 1,                                 !- Name
  {743858c9-11bd-450d-998f-9357eac69653}, !- Inlet Port
  ;                                       !- Outlet Port

OS:Connection,
  {743858c9-11bd-450d-998f-9357eac69653}, !- Handle
  {a7186c48-fdcd-4d50-b7ab-d721c213a09d}, !- Name
  {924df16c-20d3-4c61-a5a6-ebd244884585}, !- Source Object
  11,                                     !- Outlet Port
  {94a65961-2e80-4f17-959d-f65aa151a6ca}, !- Target Object
  2;                                      !- Inlet Port

OS:PortList,
  {e8e59a12-873b-4385-9c9e-c65900b5963a}, !- Handle
  {ed07bc85-39d4-4e4a-90bf-453e75f839c1}, !- Name
  {924df16c-20d3-4c61-a5a6-ebd244884585}; !- HVAC Component

OS:PortList,
  {0128f788-5bad-4c87-bdaa-9a09db79cc22}, !- Handle
  {1c5022af-97ee-4556-87c2-9d7a9c5d6eb0}, !- Name
  {924df16c-20d3-4c61-a5a6-ebd244884585}; !- HVAC Component

OS:Sizing:Zone,
  {ba8497d3-37e1-450f-8ac7-7d9e5de29070}, !- Handle
  {924df16c-20d3-4c61-a5a6-ebd244884585}, !- Zone or ZoneList Name
  SupplyAirTemperature,                   !- Zone Cooling Design Supply Air Temperature Input Method
  14,                                     !- Zone Cooling Design Supply Air Temperature {C}
  11.11,                                  !- Zone Cooling Design Supply Air Temperature Difference {deltaC}
  SupplyAirTemperature,                   !- Zone Heating Design Supply Air Temperature Input Method
  40,                                     !- Zone Heating Design Supply Air Temperature {C}
  11.11,                                  !- Zone Heating Design Supply Air Temperature Difference {deltaC}
  0.0085,                                 !- Zone Cooling Design Supply Air Humidity Ratio {kg-H2O/kg-air}
  0.008,                                  !- Zone Heating Design Supply Air Humidity Ratio {kg-H2O/kg-air}
  ,                                       !- Zone Heating Sizing Factor
  ,                                       !- Zone Cooling Sizing Factor
  DesignDay,                              !- Cooling Design Air Flow Method
  ,                                       !- Cooling Design Air Flow Rate {m3/s}
  ,                                       !- Cooling Minimum Air Flow per Zone Floor Area {m3/s-m2}
  ,                                       !- Cooling Minimum Air Flow {m3/s}
  ,                                       !- Cooling Minimum Air Flow Fraction
  DesignDay,                              !- Heating Design Air Flow Method
  ,                                       !- Heating Design Air Flow Rate {m3/s}
  ,                                       !- Heating Maximum Air Flow per Zone Floor Area {m3/s-m2}
  ,                                       !- Heating Maximum Air Flow {m3/s}
  ,                                       !- Heating Maximum Air Flow Fraction
  ,                                       !- Design Zone Air Distribution Effectiveness in Cooling Mode
  ,                                       !- Design Zone Air Distribution Effectiveness in Heating Mode
  No,                                     !- Account for Dedicated Outdoor Air System
  NeutralSupplyAir,                       !- Dedicated Outdoor Air System Control Strategy
  autosize,                               !- Dedicated Outdoor Air Low Setpoint Temperature for Design {C}
  autosize;                               !- Dedicated Outdoor Air High Setpoint Temperature for Design {C}

OS:ZoneHVAC:EquipmentList,
  {d65b709d-4913-4787-a50a-a97db691fc9c}, !- Handle
  Zone HVAC Equipment List 1,             !- Name
  {924df16c-20d3-4c61-a5a6-ebd244884585}; !- Thermal Zone

OS:Space,
  {59c7c0ec-5715-4e18-9d44-038f0e13477b}, !- Handle
  living space,                           !- Name
  ,                                       !- Space Type Name
  ,                                       !- Default Construction Set Name
  ,                                       !- Default Schedule Set Name
  -0,                                     !- Direction of Relative North {deg}
  0,                                      !- X Origin {m}
  0,                                      !- Y Origin {m}
  0,                                      !- Z Origin {m}
  ,                                       !- Building Story Name
  {924df16c-20d3-4c61-a5a6-ebd244884585}, !- Thermal Zone Name
  ,                                       !- Part of Total Floor Area
  ,                                       !- Design Specification Outdoor Air Object Name
  {0747d5c5-7448-4ce2-8302-2e40625698b3}; !- Building Unit Name

OS:Surface,
  {3ea4edf7-39af-4542-9e96-bc5b8706c7f6}, !- Handle
  Surface 1,                              !- Name
  Floor,                                  !- Surface Type
  ,                                       !- Construction Name
  {59c7c0ec-5715-4e18-9d44-038f0e13477b}, !- Space Name
  Ground,                                 !- Outside Boundary Condition
  ,                                       !- Outside Boundary Condition Object
  NoSun,                                  !- Sun Exposure
  NoWind,                                 !- Wind Exposure
  ,                                       !- View Factor to Ground
  ,                                       !- Number of Vertices
  0, 0, 0,                                !- X,Y,Z Vertex 1 {m}
  0, 5.56486118425249, 0,                 !- X,Y,Z Vertex 2 {m}
  11.129722368505, 5.56486118425249, 0,   !- X,Y,Z Vertex 3 {m}
  11.129722368505, 0, 0;                  !- X,Y,Z Vertex 4 {m}

OS:Surface,
  {9278ae40-f83c-453e-bb0a-379bc3e22f25}, !- Handle
  Surface 2,                              !- Name
  Wall,                                   !- Surface Type
  {4cd4c5b9-63e9-47ce-b6f8-c8f0b0657628}, !- Construction Name
  {59c7c0ec-5715-4e18-9d44-038f0e13477b}, !- Space Name
  Outdoors,                               !- Outside Boundary Condition
  ,                                       !- Outside Boundary Condition Object
  SunExposed,                             !- Sun Exposure
  WindExposed,                            !- Wind Exposure
  ,                                       !- View Factor to Ground
  ,                                       !- Number of Vertices
  0, 5.56486118425249, 2.4384,            !- X,Y,Z Vertex 1 {m}
  0, 5.56486118425249, 0,                 !- X,Y,Z Vertex 2 {m}
  0, 0, 0,                                !- X,Y,Z Vertex 3 {m}
  0, 0, 2.4384;                           !- X,Y,Z Vertex 4 {m}

OS:Surface,
  {27c3b3b6-98cf-4f2b-bc87-6d69e7c631d5}, !- Handle
  Surface 3,                              !- Name
  Wall,                                   !- Surface Type
  {4cd4c5b9-63e9-47ce-b6f8-c8f0b0657628}, !- Construction Name
  {59c7c0ec-5715-4e18-9d44-038f0e13477b}, !- Space Name
  Outdoors,                               !- Outside Boundary Condition
  ,                                       !- Outside Boundary Condition Object
  SunExposed,                             !- Sun Exposure
  WindExposed,                            !- Wind Exposure
  ,                                       !- View Factor to Ground
  ,                                       !- Number of Vertices
  11.129722368505, 5.56486118425249, 2.4384, !- X,Y,Z Vertex 1 {m}
  11.129722368505, 5.56486118425249, 0,   !- X,Y,Z Vertex 2 {m}
  0, 5.56486118425249, 0,                 !- X,Y,Z Vertex 3 {m}
  0, 5.56486118425249, 2.4384;            !- X,Y,Z Vertex 4 {m}

OS:Surface,
  {ef054237-55da-4a70-99f8-bf2f525b67af}, !- Handle
  Surface 4,                              !- Name
  Wall,                                   !- Surface Type
  {4cd4c5b9-63e9-47ce-b6f8-c8f0b0657628}, !- Construction Name
  {59c7c0ec-5715-4e18-9d44-038f0e13477b}, !- Space Name
  Outdoors,                               !- Outside Boundary Condition
  ,                                       !- Outside Boundary Condition Object
  SunExposed,                             !- Sun Exposure
  WindExposed,                            !- Wind Exposure
  ,                                       !- View Factor to Ground
  ,                                       !- Number of Vertices
  11.129722368505, 0, 2.4384,             !- X,Y,Z Vertex 1 {m}
  11.129722368505, 0, 0,                  !- X,Y,Z Vertex 2 {m}
  11.129722368505, 5.56486118425249, 0,   !- X,Y,Z Vertex 3 {m}
  11.129722368505, 5.56486118425249, 2.4384; !- X,Y,Z Vertex 4 {m}

OS:Surface,
  {af55cafc-71cd-4360-bda1-14ca06d940e1}, !- Handle
  Surface 5,                              !- Name
  Wall,                                   !- Surface Type
  {4cd4c5b9-63e9-47ce-b6f8-c8f0b0657628}, !- Construction Name
  {59c7c0ec-5715-4e18-9d44-038f0e13477b}, !- Space Name
  Outdoors,                               !- Outside Boundary Condition
  ,                                       !- Outside Boundary Condition Object
  SunExposed,                             !- Sun Exposure
  WindExposed,                            !- Wind Exposure
  ,                                       !- View Factor to Ground
  ,                                       !- Number of Vertices
  0, 0, 2.4384,                           !- X,Y,Z Vertex 1 {m}
  0, 0, 0,                                !- X,Y,Z Vertex 2 {m}
  11.129722368505, 0, 0,                  !- X,Y,Z Vertex 3 {m}
  11.129722368505, 0, 2.4384;             !- X,Y,Z Vertex 4 {m}

OS:Surface,
  {dab6aa97-2d3e-4ee2-a71d-8ebf0a29d78e}, !- Handle
  Surface 6,                              !- Name
  RoofCeiling,                            !- Surface Type
  ,                                       !- Construction Name
  {59c7c0ec-5715-4e18-9d44-038f0e13477b}, !- Space Name
  Surface,                                !- Outside Boundary Condition
  {da70e836-e7fa-4a4b-8950-cd3923f6f04a}, !- Outside Boundary Condition Object
  NoSun,                                  !- Sun Exposure
  NoWind,                                 !- Wind Exposure
  ,                                       !- View Factor to Ground
  ,                                       !- Number of Vertices
  11.129722368505, 0, 2.4384,             !- X,Y,Z Vertex 1 {m}
  11.129722368505, 5.56486118425249, 2.4384, !- X,Y,Z Vertex 2 {m}
  0, 5.56486118425249, 2.4384,            !- X,Y,Z Vertex 3 {m}
  0, 0, 2.4384;                           !- X,Y,Z Vertex 4 {m}

OS:Space,
  {fade782d-231a-464b-9975-9a05104e3d90}, !- Handle
  living space|story 2,                   !- Name
  ,                                       !- Space Type Name
  ,                                       !- Default Construction Set Name
  ,                                       !- Default Schedule Set Name
  -0,                                     !- Direction of Relative North {deg}
  0,                                      !- X Origin {m}
  0,                                      !- Y Origin {m}
  2.4384,                                 !- Z Origin {m}
  ,                                       !- Building Story Name
  {924df16c-20d3-4c61-a5a6-ebd244884585}, !- Thermal Zone Name
  ,                                       !- Part of Total Floor Area
  ,                                       !- Design Specification Outdoor Air Object Name
  {0747d5c5-7448-4ce2-8302-2e40625698b3}; !- Building Unit Name

OS:Surface,
  {da70e836-e7fa-4a4b-8950-cd3923f6f04a}, !- Handle
  Surface 7,                              !- Name
  Floor,                                  !- Surface Type
  ,                                       !- Construction Name
  {fade782d-231a-464b-9975-9a05104e3d90}, !- Space Name
  Surface,                                !- Outside Boundary Condition
  {dab6aa97-2d3e-4ee2-a71d-8ebf0a29d78e}, !- Outside Boundary Condition Object
  NoSun,                                  !- Sun Exposure
  NoWind,                                 !- Wind Exposure
  ,                                       !- View Factor to Ground
  ,                                       !- Number of Vertices
  0, 0, 0,                                !- X,Y,Z Vertex 1 {m}
  0, 5.56486118425249, 0,                 !- X,Y,Z Vertex 2 {m}
  11.129722368505, 5.56486118425249, 0,   !- X,Y,Z Vertex 3 {m}
  11.129722368505, 0, 0;                  !- X,Y,Z Vertex 4 {m}

OS:Surface,
  {c658b9da-2d25-4e43-8cc4-65a52b782b74}, !- Handle
  Surface 8,                              !- Name
  Wall,                                   !- Surface Type
  {4cd4c5b9-63e9-47ce-b6f8-c8f0b0657628}, !- Construction Name
  {fade782d-231a-464b-9975-9a05104e3d90}, !- Space Name
  Outdoors,                               !- Outside Boundary Condition
  ,                                       !- Outside Boundary Condition Object
  SunExposed,                             !- Sun Exposure
  WindExposed,                            !- Wind Exposure
  ,                                       !- View Factor to Ground
  ,                                       !- Number of Vertices
  0, 5.56486118425249, 2.4384,            !- X,Y,Z Vertex 1 {m}
  0, 5.56486118425249, 0,                 !- X,Y,Z Vertex 2 {m}
  0, 0, 0,                                !- X,Y,Z Vertex 3 {m}
  0, 0, 2.4384;                           !- X,Y,Z Vertex 4 {m}

OS:Surface,
  {95e58b5f-6d54-4c37-8b23-e635a30b3f84}, !- Handle
  Surface 9,                              !- Name
  Wall,                                   !- Surface Type
  {4cd4c5b9-63e9-47ce-b6f8-c8f0b0657628}, !- Construction Name
  {fade782d-231a-464b-9975-9a05104e3d90}, !- Space Name
  Outdoors,                               !- Outside Boundary Condition
  ,                                       !- Outside Boundary Condition Object
  SunExposed,                             !- Sun Exposure
  WindExposed,                            !- Wind Exposure
  ,                                       !- View Factor to Ground
  ,                                       !- Number of Vertices
  11.129722368505, 5.56486118425249, 2.4384, !- X,Y,Z Vertex 1 {m}
  11.129722368505, 5.56486118425249, 0,   !- X,Y,Z Vertex 2 {m}
  0, 5.56486118425249, 0,                 !- X,Y,Z Vertex 3 {m}
  0, 5.56486118425249, 2.4384;            !- X,Y,Z Vertex 4 {m}

OS:Surface,
  {df86f2b5-77df-476a-a1f3-26b5db285cf2}, !- Handle
  Surface 10,                             !- Name
  Wall,                                   !- Surface Type
  {4cd4c5b9-63e9-47ce-b6f8-c8f0b0657628}, !- Construction Name
  {fade782d-231a-464b-9975-9a05104e3d90}, !- Space Name
  Outdoors,                               !- Outside Boundary Condition
  ,                                       !- Outside Boundary Condition Object
  SunExposed,                             !- Sun Exposure
  WindExposed,                            !- Wind Exposure
  ,                                       !- View Factor to Ground
  ,                                       !- Number of Vertices
  11.129722368505, 0, 2.4384,             !- X,Y,Z Vertex 1 {m}
  11.129722368505, 0, 0,                  !- X,Y,Z Vertex 2 {m}
  11.129722368505, 5.56486118425249, 0,   !- X,Y,Z Vertex 3 {m}
  11.129722368505, 5.56486118425249, 2.4384; !- X,Y,Z Vertex 4 {m}

OS:Surface,
  {7d9c4e65-e3f1-4bb3-aea0-38638441411e}, !- Handle
  Surface 11,                             !- Name
  Wall,                                   !- Surface Type
  {4cd4c5b9-63e9-47ce-b6f8-c8f0b0657628}, !- Construction Name
  {fade782d-231a-464b-9975-9a05104e3d90}, !- Space Name
  Outdoors,                               !- Outside Boundary Condition
  ,                                       !- Outside Boundary Condition Object
  SunExposed,                             !- Sun Exposure
  WindExposed,                            !- Wind Exposure
  ,                                       !- View Factor to Ground
  ,                                       !- Number of Vertices
  0, 0, 2.4384,                           !- X,Y,Z Vertex 1 {m}
  0, 0, 0,                                !- X,Y,Z Vertex 2 {m}
  11.129722368505, 0, 0,                  !- X,Y,Z Vertex 3 {m}
  11.129722368505, 0, 2.4384;             !- X,Y,Z Vertex 4 {m}

OS:Surface,
  {93fe2b5b-47eb-4574-a49c-f7ea5b3f23c4}, !- Handle
  Surface 12,                             !- Name
  RoofCeiling,                            !- Surface Type
  ,                                       !- Construction Name
  {fade782d-231a-464b-9975-9a05104e3d90}, !- Space Name
  Surface,                                !- Outside Boundary Condition
  {dca29c92-2597-4272-8c38-183089e00e94}, !- Outside Boundary Condition Object
  NoSun,                                  !- Sun Exposure
  NoWind,                                 !- Wind Exposure
  ,                                       !- View Factor to Ground
  ,                                       !- Number of Vertices
  11.129722368505, 0, 2.4384,             !- X,Y,Z Vertex 1 {m}
  11.129722368505, 5.56486118425249, 2.4384, !- X,Y,Z Vertex 2 {m}
  0, 5.56486118425249, 2.4384,            !- X,Y,Z Vertex 3 {m}
  0, 0, 2.4384;                           !- X,Y,Z Vertex 4 {m}

OS:Surface,
  {dca29c92-2597-4272-8c38-183089e00e94}, !- Handle
  Surface 13,                             !- Name
  Floor,                                  !- Surface Type
  ,                                       !- Construction Name
  {2e9cdb2b-fbda-49df-8491-2cee4aba017f}, !- Space Name
  Surface,                                !- Outside Boundary Condition
  {93fe2b5b-47eb-4574-a49c-f7ea5b3f23c4}, !- Outside Boundary Condition Object
  NoSun,                                  !- Sun Exposure
  NoWind,                                 !- Wind Exposure
  ,                                       !- View Factor to Ground
  ,                                       !- Number of Vertices
  0, 5.56486118425249, 0,                 !- X,Y,Z Vertex 1 {m}
  11.129722368505, 5.56486118425249, 0,   !- X,Y,Z Vertex 2 {m}
  11.129722368505, 0, 0,                  !- X,Y,Z Vertex 3 {m}
  0, 0, 0;                                !- X,Y,Z Vertex 4 {m}

OS:Surface,
  {ce830bc3-2bb5-448c-9da9-93e45a281d4e}, !- Handle
  Surface 14,                             !- Name
  RoofCeiling,                            !- Surface Type
  ,                                       !- Construction Name
  {2e9cdb2b-fbda-49df-8491-2cee4aba017f}, !- Space Name
  Outdoors,                               !- Outside Boundary Condition
  ,                                       !- Outside Boundary Condition Object
  SunExposed,                             !- Sun Exposure
  WindExposed,                            !- Wind Exposure
  ,                                       !- View Factor to Ground
  ,                                       !- Number of Vertices
  11.129722368505, 2.78243059212624, 1.39121529606312, !- X,Y,Z Vertex 1 {m}
  0, 2.78243059212624, 1.39121529606312,  !- X,Y,Z Vertex 2 {m}
  0, 0, 0,                                !- X,Y,Z Vertex 3 {m}
  11.129722368505, 0, 0;                  !- X,Y,Z Vertex 4 {m}

OS:Surface,
  {7f82284b-80a6-421f-930e-b742da4fd299}, !- Handle
  Surface 15,                             !- Name
  RoofCeiling,                            !- Surface Type
  ,                                       !- Construction Name
  {2e9cdb2b-fbda-49df-8491-2cee4aba017f}, !- Space Name
  Outdoors,                               !- Outside Boundary Condition
  ,                                       !- Outside Boundary Condition Object
  SunExposed,                             !- Sun Exposure
  WindExposed,                            !- Wind Exposure
  ,                                       !- View Factor to Ground
  ,                                       !- Number of Vertices
  0, 2.78243059212624, 1.39121529606312,  !- X,Y,Z Vertex 1 {m}
  11.129722368505, 2.78243059212624, 1.39121529606312, !- X,Y,Z Vertex 2 {m}
  11.129722368505, 5.56486118425249, 0,   !- X,Y,Z Vertex 3 {m}
  0, 5.56486118425249, 0;                 !- X,Y,Z Vertex 4 {m}

OS:Surface,
  {629eaecf-37d4-4daa-b882-5caf0d582797}, !- Handle
  Surface 16,                             !- Name
  Wall,                                   !- Surface Type
  {4cd4c5b9-63e9-47ce-b6f8-c8f0b0657628}, !- Construction Name
  {2e9cdb2b-fbda-49df-8491-2cee4aba017f}, !- Space Name
  Outdoors,                               !- Outside Boundary Condition
  ,                                       !- Outside Boundary Condition Object
  SunExposed,                             !- Sun Exposure
  WindExposed,                            !- Wind Exposure
  ,                                       !- View Factor to Ground
  ,                                       !- Number of Vertices
  0, 2.78243059212624, 1.39121529606312,  !- X,Y,Z Vertex 1 {m}
  0, 5.56486118425249, 0,                 !- X,Y,Z Vertex 2 {m}
  0, 0, 0;                                !- X,Y,Z Vertex 3 {m}

OS:Surface,
  {25186843-c9c3-4fa0-912a-5ea759e41991}, !- Handle
  Surface 17,                             !- Name
  Wall,                                   !- Surface Type
  {4cd4c5b9-63e9-47ce-b6f8-c8f0b0657628}, !- Construction Name
  {2e9cdb2b-fbda-49df-8491-2cee4aba017f}, !- Space Name
  Outdoors,                               !- Outside Boundary Condition
  ,                                       !- Outside Boundary Condition Object
  SunExposed,                             !- Sun Exposure
  WindExposed,                            !- Wind Exposure
  ,                                       !- View Factor to Ground
  ,                                       !- Number of Vertices
  11.129722368505, 2.78243059212624, 1.39121529606312, !- X,Y,Z Vertex 1 {m}
  11.129722368505, 0, 0,                  !- X,Y,Z Vertex 2 {m}
  11.129722368505, 5.56486118425249, 0;   !- X,Y,Z Vertex 3 {m}

OS:Space,
  {2e9cdb2b-fbda-49df-8491-2cee4aba017f}, !- Handle
  finished attic space,                   !- Name
  ,                                       !- Space Type Name
  ,                                       !- Default Construction Set Name
  ,                                       !- Default Schedule Set Name
  -0,                                     !- Direction of Relative North {deg}
  0,                                      !- X Origin {m}
  0,                                      !- Y Origin {m}
  4.8768,                                 !- Z Origin {m}
  ,                                       !- Building Story Name
  {924df16c-20d3-4c61-a5a6-ebd244884585}, !- Thermal Zone Name
  ,                                       !- Part of Total Floor Area
  ,                                       !- Design Specification Outdoor Air Object Name
  {0747d5c5-7448-4ce2-8302-2e40625698b3}; !- Building Unit Name

OS:BuildingUnit,
  {0747d5c5-7448-4ce2-8302-2e40625698b3}, !- Handle
  unit 1,                                 !- Name
  ,                                       !- Rendering Color
  Residential,                            !- Building Unit Type
  SizingInfoWallType|{629eaecf-37d4-4daa-b882-5caf0d582797}, !- Building Unit Feature Name 1
  String,                                 !- Building Unit Feature Data Type 1
  WoodStud,                               !- Building Unit Feature Value 1
  SizingInfoStudWallCavityRvalue|{629eaecf-37d4-4daa-b882-5caf0d582797}, !- Building Unit Feature Name 2
  Double,                                 !- Building Unit Feature Data Type 2
  13,                                     !- Building Unit Feature Value 2
  SizingInfoWallType|{25186843-c9c3-4fa0-912a-5ea759e41991}, !- Building Unit Feature Name 3
  String,                                 !- Building Unit Feature Data Type 3
  WoodStud,                               !- Building Unit Feature Value 3
  SizingInfoStudWallCavityRvalue|{25186843-c9c3-4fa0-912a-5ea759e41991}, !- Building Unit Feature Name 4
  Double,                                 !- Building Unit Feature Data Type 4
  13,                                     !- Building Unit Feature Value 4
  SizingInfoWallType|{9278ae40-f83c-453e-bb0a-379bc3e22f25}, !- Building Unit Feature Name 5
  String,                                 !- Building Unit Feature Data Type 5
  WoodStud,                               !- Building Unit Feature Value 5
  SizingInfoStudWallCavityRvalue|{9278ae40-f83c-453e-bb0a-379bc3e22f25}, !- Building Unit Feature Name 6
  Double,                                 !- Building Unit Feature Data Type 6
  13,                                     !- Building Unit Feature Value 6
  SizingInfoWallType|{ef054237-55da-4a70-99f8-bf2f525b67af}, !- Building Unit Feature Name 7
  String,                                 !- Building Unit Feature Data Type 7
  WoodStud,                               !- Building Unit Feature Value 7
  SizingInfoStudWallCavityRvalue|{ef054237-55da-4a70-99f8-bf2f525b67af}, !- Building Unit Feature Name 8
  Double,                                 !- Building Unit Feature Data Type 8