!- NOTE: Auto-generated from /test/osw_files/SFD_2000sqft_2story_SL_UA_AllLayersButExteriorFinish_CeilingIns.osw

OS:Version,
  {83ac249b-6635-4986-9291-0541bf8640a8}, !- Handle
  2.2.1;                                  !- Version Identifier

OS:Building,
  {bf305633-c5a1-4881-9edf-ca5e1a8e1274}, !- Handle
  Building,                               !- Name
  ,                                       !- Building Sector Type
  ,                                       !- North Axis {deg}
  ,                                       !- Nominal Floor to Floor Height {m}
  ,                                       !- Space Type Name
  ,                                       !- Default Construction Set Name
  ,                                       !- Default Schedule Set Name
  2,                                      !- Standards Number of Stories
  2,                                      !- Standards Number of Above Ground Stories
  singlefamilydetached,                   !- Standards Building Type
  1;                                      !- Standards Number of Living Units

OS:YearDescription,
  {513d8dda-86cb-442a-b01c-1f7f0e0ac70e}; !- Handle

OS:SimulationControl,
  {2c487a4c-bac9-4ac5-b669-1e49d9da7c2b}, !- Handle
  ,                                       !- Do Zone Sizing Calculation
  ,                                       !- Do System Sizing Calculation
  ,                                       !- Do Plant Sizing Calculation
  No,                                     !- Run Simulation for Sizing Periods
  ;                                       !- Run Simulation for Weather File Run Periods

OS:Timestep,
  {4ebc9f1e-4707-402e-9844-67eb1ffbd522}, !- Handle
  6;                                      !- Number of Timesteps per Hour

OS:RunPeriod,
  {28df894d-6af9-4fb8-8f56-df1753344aa3}, !- Handle
  Run Period,                             !- Name
  1,                                      !- Begin Month
  1,                                      !- Begin Day of Month
  12,                                     !- End Month
  31,                                     !- End Day of Month
  ,                                       !- Use Weather File Holidays and Special Days
  ,                                       !- Use Weather File Daylight Saving Period
  ,                                       !- Apply Weekend Holiday Rule
  ,                                       !- Use Weather File Rain Indicators
  ,                                       !- Use Weather File Snow Indicators
  ;                                       !- Number of Times Runperiod to be Repeated

OS:Sizing:Parameters,
  {dde5af6f-7923-4600-a28a-7556673a0266}, !- Handle
  1.0,                                    !- Heating Sizing Factor
  1.0;                                    !- Cooling Sizing Factor

OS:ShadowCalculation,
  {ca758bea-4416-4626-9bba-3d8795c79bd6}, !- Handle
  20,                                     !- Calculation Frequency
  200;                                    !- Maximum Figures in Shadow Overlap Calculations

OS:SurfaceConvectionAlgorithm:Inside,
  {aaabfc36-718a-4ab0-b622-f186ebb45230}, !- Handle
  TARP;                                   !- Algorithm

OS:SurfaceConvectionAlgorithm:Outside,
  {9a0a9f6f-4bbd-4b12-a121-9492a1fcd7d6}, !- Handle
  DOE-2;                                  !- Algorithm

OS:HeatBalanceAlgorithm,
  {9d93e563-e1e0-46d7-9e39-d1c8aceb7212}, !- Handle
  ConductionTransferFunction,             !- Algorithm
  200;                                    !- Surface Temperature Upper Limit {C}

OS:ZoneCapacitanceMultiplier:ResearchSpecial,
  {6bfced16-b16f-47f6-8223-f7e267d75d19}, !- Handle
  ,                                       !- Temperature Capacity Multiplier
  15,                                     !- Humidity Capacity Multiplier
  ;                                       !- Carbon Dioxide Capacity Multiplier

OS:ThermalZone,
  {e8c4b2d7-a4aa-4703-ab83-468033f6424e}, !- Handle
  living zone,                            !- Name
  ,                                       !- Multiplier
  ,                                       !- Ceiling Height {m}
  ,                                       !- Volume {m3}
  ,                                       !- Floor Area {m2}
  ,                                       !- Zone Inside Convection Algorithm
  ,                                       !- Zone Outside Convection Algorithm
  ,                                       !- Zone Conditioning Equipment List Name
  {faa11091-50f4-4cdd-bf38-4933b00347a0}, !- Zone Air Inlet Port List
  {8f841293-fcec-4e03-8934-c624af75c173}, !- Zone Air Exhaust Port List
  {92b6d443-4008-45b9-b29e-cf36744d9947}, !- Zone Air Node Name
  ,                                       !- Zone Return Air Node Name
  ,                                       !- Primary Daylighting Control Name
  ,                                       !- Fraction of Zone Controlled by Primary Daylighting Control
  ,                                       !- Secondary Daylighting Control Name
  ,                                       !- Fraction of Zone Controlled by Secondary Daylighting Control
  ,                                       !- Illuminance Map Name
  ,                                       !- Group Rendering Name
  ,                                       !- Thermostat Name
  No;                                     !- Use Ideal Air Loads

OS:Node,
  {6e53f09b-48b6-4403-b661-90907529088b}, !- Handle
  Node 1,                                 !- Name
  {92b6d443-4008-45b9-b29e-cf36744d9947}, !- Inlet Port
  ;                                       !- Outlet Port

OS:Connection,
  {92b6d443-4008-45b9-b29e-cf36744d9947}, !- Handle
  {2ee71672-7885-4e79-bcb2-e502ce9f2729}, !- Name
  {e8c4b2d7-a4aa-4703-ab83-468033f6424e}, !- Source Object
  11,                                     !- Outlet Port
  {6e53f09b-48b6-4403-b661-90907529088b}, !- Target Object
  2;                                      !- Inlet Port

OS:PortList,
  {faa11091-50f4-4cdd-bf38-4933b00347a0}, !- Handle
  {0630af8e-e553-43fb-9fde-7ea70e7ebc35}, !- Name
  {e8c4b2d7-a4aa-4703-ab83-468033f6424e}; !- HVAC Component

OS:PortList,
  {8f841293-fcec-4e03-8934-c624af75c173}, !- Handle
  {8d19edcf-8b44-4a2b-8c8b-21954c31be18}, !- Name
  {e8c4b2d7-a4aa-4703-ab83-468033f6424e}; !- HVAC Component

OS:Sizing:Zone,
  {644fab55-090f-4bd1-a26f-029b10e10bac}, !- Handle
  {e8c4b2d7-a4aa-4703-ab83-468033f6424e}, !- Zone or ZoneList Name
  SupplyAirTemperature,                   !- Zone Cooling Design Supply Air Temperature Input Method
  14,                                     !- Zone Cooling Design Supply Air Temperature {C}
  11.11,                                  !- Zone Cooling Design Supply Air Temperature Difference {deltaC}
  SupplyAirTemperature,                   !- Zone Heating Design Supply Air Temperature Input Method
  40,                                     !- Zone Heating Design Supply Air Temperature {C}
  11.11,                                  !- Zone Heating Design Supply Air Temperature Difference {deltaC}
  0.0085,                                 !- Zone Cooling Design Supply Air Humidity Ratio {kg-H2O/kg-air}
  0.008,                                  !- Zone Heating Design Supply Air Humidity Ratio {kg-H2O/kg-air}
  ,                                       !- Zone Heating Sizing Factor
  ,                                       !- Zone Cooling Sizing Factor
  DesignDay,                              !- Cooling Design Air Flow Method
  ,                                       !- Cooling Design Air Flow Rate {m3/s}
  ,                                       !- Cooling Minimum Air Flow per Zone Floor Area {m3/s-m2}
  ,                                       !- Cooling Minimum Air Flow {m3/s}
  ,                                       !- Cooling Minimum Air Flow Fraction
  DesignDay,                              !- Heating Design Air Flow Method
  ,                                       !- Heating Design Air Flow Rate {m3/s}
  ,                                       !- Heating Maximum Air Flow per Zone Floor Area {m3/s-m2}
  ,                                       !- Heating Maximum Air Flow {m3/s}
  ,                                       !- Heating Maximum Air Flow Fraction
  ,                                       !- Design Zone Air Distribution Effectiveness in Cooling Mode
  ,                                       !- Design Zone Air Distribution Effectiveness in Heating Mode
  No,                                     !- Account for Dedicated Outdoor Air System
  NeutralSupplyAir,                       !- Dedicated Outdoor Air System Control Strategy
  autosize,                               !- Dedicated Outdoor Air Low Setpoint Temperature for Design {C}
  autosize;                               !- Dedicated Outdoor Air High Setpoint Temperature for Design {C}

OS:ZoneHVAC:EquipmentList,
  {5eaf1445-1fb5-459a-8824-3c32c246944a}, !- Handle
  Zone HVAC Equipment List 1,             !- Name
  {e8c4b2d7-a4aa-4703-ab83-468033f6424e}; !- Thermal Zone

OS:Space,
  {b87fbeb8-f921-4ecc-907b-9b55cd9895d4}, !- Handle
  living space,                           !- Name
  ,                                       !- Space Type Name
  ,                                       !- Default Construction Set Name
  ,                                       !- Default Schedule Set Name
  -0,                                     !- Direction of Relative North {deg}
  0,                                      !- X Origin {m}
  0,                                      !- Y Origin {m}
  0,                                      !- Z Origin {m}
  ,                                       !- Building Story Name
  {e8c4b2d7-a4aa-4703-ab83-468033f6424e}, !- Thermal Zone Name
  ,                                       !- Part of Total Floor Area
  ,                                       !- Design Specification Outdoor Air Object Name
  {1ba9160e-e1ca-4e26-a957-c9699956e015}; !- Building Unit Name

OS:Surface,
  {ddd739e7-3b9b-482d-a175-1623b3e1ab1c}, !- Handle
  Surface 1,                              !- Name
  Floor,                                  !- Surface Type
  ,                                       !- Construction Name
  {b87fbeb8-f921-4ecc-907b-9b55cd9895d4}, !- Space Name
  Ground,                                 !- Outside Boundary Condition
  ,                                       !- Outside Boundary Condition Object
  NoSun,                                  !- Sun Exposure
  NoWind,                                 !- Wind Exposure
  ,                                       !- View Factor to Ground
  ,                                       !- Number of Vertices
  0, 0, 0,                                !- X,Y,Z Vertex 1 {m}
  0, 6.81553519541936, 0,                 !- X,Y,Z Vertex 2 {m}
  13.6310703908387, 6.81553519541936, 0,  !- X,Y,Z Vertex 3 {m}
  13.6310703908387, 0, 0;                 !- X,Y,Z Vertex 4 {m}

OS:Surface,
  {0c227b6d-1b16-4111-8ebb-6954581205d1}, !- Handle
  Surface 2,                              !- Name
  Wall,                                   !- Surface Type
  {f6892fb9-ffd7-4504-9ac3-244ab729725f}, !- Construction Name
  {b87fbeb8-f921-4ecc-907b-9b55cd9895d4}, !- Space Name
  Outdoors,                               !- Outside Boundary Condition
  ,                                       !- Outside Boundary Condition Object
  SunExposed,                             !- Sun Exposure
  WindExposed,                            !- Wind Exposure
  ,                                       !- View Factor to Ground
  ,                                       !- Number of Vertices
  0, 6.81553519541936, 2.4384,            !- X,Y,Z Vertex 1 {m}
  0, 6.81553519541936, 0,                 !- X,Y,Z Vertex 2 {m}
  0, 0, 0,                                !- X,Y,Z Vertex 3 {m}
  0, 0, 2.4384;                           !- X,Y,Z Vertex 4 {m}

OS:Surface,
  {3efbe047-e217-49f0-bc0c-ce0b4035805e}, !- Handle
  Surface 3,                              !- Name
  Wall,                                   !- Surface Type
  {f6892fb9-ffd7-4504-9ac3-244ab729725f}, !- Construction Name
  {b87fbeb8-f921-4ecc-907b-9b55cd9895d4}, !- Space Name
  Outdoors,                               !- Outside Boundary Condition
  ,                                       !- Outside Boundary Condition Object
  SunExposed,                             !- Sun Exposure
  WindExposed,                            !- Wind Exposure
  ,                                       !- View Factor to Ground
  ,                                       !- Number of Vertices
  13.6310703908387, 6.81553519541936, 2.4384, !- X,Y,Z Vertex 1 {m}
  13.6310703908387, 6.81553519541936, 0,  !- X,Y,Z Vertex 2 {m}
  0, 6.81553519541936, 0,                 !- X,Y,Z Vertex 3 {m}
  0, 6.81553519541936, 2.4384;            !- X,Y,Z Vertex 4 {m}

OS:Surface,
  {d9881c03-e51d-4e8a-b972-0f1eb5f5739a}, !- Handle
  Surface 4,                              !- Name
  Wall,                                   !- Surface Type
  {f6892fb9-ffd7-4504-9ac3-244ab729725f}, !- Construction Name
  {b87fbeb8-f921-4ecc-907b-9b55cd9895d4}, !- Space Name
  Outdoors,                               !- Outside Boundary Condition
  ,                                       !- Outside Boundary Condition Object
  SunExposed,                             !- Sun Exposure
  WindExposed,                            !- Wind Exposure
  ,                                       !- View Factor to Ground
  ,                                       !- Number of Vertices
  13.6310703908387, 0, 2.4384,            !- X,Y,Z Vertex 1 {m}
  13.6310703908387, 0, 0,                 !- X,Y,Z Vertex 2 {m}
  13.6310703908387, 6.81553519541936, 0,  !- X,Y,Z Vertex 3 {m}
  13.6310703908387, 6.81553519541936, 2.4384; !- X,Y,Z Vertex 4 {m}

OS:Surface,
  {3766bcd7-0061-4739-9f6e-112f5fb1af16}, !- Handle
  Surface 5,                              !- Name
  Wall,                                   !- Surface Type
  {f6892fb9-ffd7-4504-9ac3-244ab729725f}, !- Construction Name
  {b87fbeb8-f921-4ecc-907b-9b55cd9895d4}, !- Space Name
  Outdoors,                               !- Outside Boundary Condition
  ,                                       !- Outside Boundary Condition Object
  SunExposed,                             !- Sun Exposure
  WindExposed,                            !- Wind Exposure
  ,                                       !- View Factor to Ground
  ,                                       !- Number of Vertices
  0, 0, 2.4384,                           !- X,Y,Z Vertex 1 {m}
  0, 0, 0,                                !- X,Y,Z Vertex 2 {m}
  13.6310703908387, 0, 0,                 !- X,Y,Z Vertex 3 {m}
  13.6310703908387, 0, 2.4384;            !- X,Y,Z Vertex 4 {m}

OS:Surface,
  {4c1f53bb-466f-42aa-b74d-e8fc54ab4751}, !- Handle
  Surface 6,                              !- Name
  RoofCeiling,                            !- Surface Type
  {9e8d8019-258e-4330-b803-0192ed7f95c2}, !- Construction Name
  {b87fbeb8-f921-4ecc-907b-9b55cd9895d4}, !- Space Name
  Surface,                                !- Outside Boundary Condition
  {28522abe-b79c-42e3-aeb0-3edad9efedc9}, !- Outside Boundary Condition Object
  NoSun,                                  !- Sun Exposure
  NoWind,                                 !- Wind Exposure
  ,                                       !- View Factor to Ground
  ,                                       !- Number of Vertices
  13.6310703908387, 0, 2.4384,            !- X,Y,Z Vertex 1 {m}
  13.6310703908387, 6.81553519541936, 2.4384, !- X,Y,Z Vertex 2 {m}
  0, 6.81553519541936, 2.4384,            !- X,Y,Z Vertex 3 {m}
  0, 0, 2.4384;                           !- X,Y,Z Vertex 4 {m}

OS:Space,
  {90f61e5c-3021-4b2d-807e-4258b3616ee9}, !- Handle
  living space|story 2,                   !- Name
  ,                                       !- Space Type Name
  ,                                       !- Default Construction Set Name
  ,                                       !- Default Schedule Set Name
  -0,                                     !- Direction of Relative North {deg}
  0,                                      !- X Origin {m}
  0,                                      !- Y Origin {m}
  2.4384,                                 !- Z Origin {m}
  ,                                       !- Building Story Name
  {e8c4b2d7-a4aa-4703-ab83-468033f6424e}, !- Thermal Zone Name
  ,                                       !- Part of Total Floor Area
  ,                                       !- Design Specification Outdoor Air Object Name
  {1ba9160e-e1ca-4e26-a957-c9699956e015}; !- Building Unit Name

OS:Surface,
  {28522abe-b79c-42e3-aeb0-3edad9efedc9}, !- Handle
  Surface 7,                              !- Name
  Floor,                                  !- Surface Type
  {9e8d8019-258e-4330-b803-0192ed7f95c2}, !- Construction Name
  {90f61e5c-3021-4b2d-807e-4258b3616ee9}, !- Space Name
  Surface,                                !- Outside Boundary Condition
  {4c1f53bb-466f-42aa-b74d-e8fc54ab4751}, !- Outside Boundary Condition Object
  NoSun,                                  !- Sun Exposure
  NoWind,                                 !- Wind Exposure
  ,                                       !- View Factor to Ground
  ,                                       !- Number of Vertices
  0, 0, 0,                                !- X,Y,Z Vertex 1 {m}
  0, 6.81553519541936, 0,                 !- X,Y,Z Vertex 2 {m}
  13.6310703908387, 6.81553519541936, 0,  !- X,Y,Z Vertex 3 {m}
  13.6310703908387, 0, 0;                 !- X,Y,Z Vertex 4 {m}

OS:Surface,
  {4bb555bc-5652-4aca-9b47-158b77492f42}, !- Handle
  Surface 8,                              !- Name
  Wall,                                   !- Surface Type
  {f6892fb9-ffd7-4504-9ac3-244ab729725f}, !- Construction Name
  {90f61e5c-3021-4b2d-807e-4258b3616ee9}, !- Space Name
  Outdoors,                               !- Outside Boundary Condition
  ,                                       !- Outside Boundary Condition Object
  SunExposed,                             !- Sun Exposure
  WindExposed,                            !- Wind Exposure
  ,                                       !- View Factor to Ground
  ,                                       !- Number of Vertices
  0, 6.81553519541936, 2.4384,            !- X,Y,Z Vertex 1 {m}
  0, 6.81553519541936, 0,                 !- X,Y,Z Vertex 2 {m}
  0, 0, 0,                                !- X,Y,Z Vertex 3 {m}
  0, 0, 2.4384;                           !- X,Y,Z Vertex 4 {m}

OS:Surface,
  {519bf231-90f5-46ef-abba-f2878fd2bee5}, !- Handle
  Surface 9,                              !- Name
  Wall,                                   !- Surface Type
  {f6892fb9-ffd7-4504-9ac3-244ab729725f}, !- Construction Name
  {90f61e5c-3021-4b2d-807e-4258b3616ee9}, !- Space Name
  Outdoors,                               !- Outside Boundary Condition
  ,                                       !- Outside Boundary Condition Object
  SunExposed,                             !- Sun Exposure
  WindExposed,                            !- Wind Exposure
  ,                                       !- View Factor to Ground
  ,                                       !- Number of Vertices
  13.6310703908387, 6.81553519541936, 2.4384, !- X,Y,Z Vertex 1 {m}
  13.6310703908387, 6.81553519541936, 0,  !- X,Y,Z Vertex 2 {m}
  0, 6.81553519541936, 0,                 !- X,Y,Z Vertex 3 {m}
  0, 6.81553519541936, 2.4384;            !- X,Y,Z Vertex 4 {m}

OS:Surface,
  {cc5f8f12-7db2-4c25-9caa-f5eb35422107}, !- Handle
  Surface 10,                             !- Name
  Wall,                                   !- Surface Type
  {f6892fb9-ffd7-4504-9ac3-244ab729725f}, !- Construction Name
  {90f61e5c-3021-4b2d-807e-4258b3616ee9}, !- Space Name
  Outdoors,                               !- Outside Boundary Condition
  ,                                       !- Outside Boundary Condition Object
  SunExposed,                             !- Sun Exposure
  WindExposed,                            !- Wind Exposure
  ,                                       !- View Factor to Ground
  ,                                       !- Number of Vertices
  13.6310703908387, 0, 2.4384,            !- X,Y,Z Vertex 1 {m}
  13.6310703908387, 0, 0,                 !- X,Y,Z Vertex 2 {m}
  13.6310703908387, 6.81553519541936, 0,  !- X,Y,Z Vertex 3 {m}
  13.6310703908387, 6.81553519541936, 2.4384; !- X,Y,Z Vertex 4 {m}

OS:Surface,
  {543221ac-bb99-4f91-945c-fbaf339c0f08}, !- Handle
  Surface 11,                             !- Name
  Wall,                                   !- Surface Type
  {f6892fb9-ffd7-4504-9ac3-244ab729725f}, !- Construction Name
  {90f61e5c-3021-4b2d-807e-4258b3616ee9}, !- Space Name
  Outdoors,                               !- Outside Boundary Condition
  ,                                       !- Outside Boundary Condition Object
  SunExposed,                             !- Sun Exposure
  WindExposed,                            !- Wind Exposure
  ,                                       !- View Factor to Ground
  ,                                       !- Number of Vertices
  0, 0, 2.4384,                           !- X,Y,Z Vertex 1 {m}
  0, 0, 0,                                !- X,Y,Z Vertex 2 {m}
  13.6310703908387, 0, 0,                 !- X,Y,Z Vertex 3 {m}
  13.6310703908387, 0, 2.4384;            !- X,Y,Z Vertex 4 {m}

OS:Surface,
  {f53f91c3-b8be-45d8-bcc7-ee8492b2034a}, !- Handle
  Surface 12,                             !- Name
  RoofCeiling,                            !- Surface Type
  {e7c5909b-7ab9-4387-8710-5480c7e6b9a9}, !- Construction Name
  {90f61e5c-3021-4b2d-807e-4258b3616ee9}, !- Space Name
  Surface,                                !- Outside Boundary Condition
  {df1a7931-4e63-4cef-9a41-87c27b5cbbb9}, !- Outside Boundary Condition Object
  NoSun,                                  !- Sun Exposure
  NoWind,                                 !- Wind Exposure
  ,                                       !- View Factor to Ground
  ,                                       !- Number of Vertices
  13.6310703908387, 0, 2.4384,            !- X,Y,Z Vertex 1 {m}
  13.6310703908387, 6.81553519541936, 2.4384, !- X,Y,Z Vertex 2 {m}
  0, 6.81553519541936, 2.4384,            !- X,Y,Z Vertex 3 {m}
  0, 0, 2.4384;                           !- X,Y,Z Vertex 4 {m}

OS:Surface,
  {df1a7931-4e63-4cef-9a41-87c27b5cbbb9}, !- Handle
  Surface 13,                             !- Name
  Floor,                                  !- Surface Type
  {4e5d0001-d373-4ef8-9c14-a1da1848b174}, !- Construction Name
  {8b12bcb1-0632-4fe6-8a8a-f7165d9a355c}, !- Space Name
  Surface,                                !- Outside Boundary Condition
  {f53f91c3-b8be-45d8-bcc7-ee8492b2034a}, !- Outside Boundary Condition Object
  NoSun,                                  !- Sun Exposure
  NoWind,                                 !- Wind Exposure
  ,                                       !- View Factor to Ground
  ,                                       !- Number of Vertices
  0, 6.81553519541936, 0,                 !- X,Y,Z Vertex 1 {m}
  13.6310703908387, 6.81553519541936, 0,  !- X,Y,Z Vertex 2 {m}
  13.6310703908387, 0, 0,                 !- X,Y,Z Vertex 3 {m}
  0, 0, 0;                                !- X,Y,Z Vertex 4 {m}

OS:Surface,
  {9c48a7e1-99d0-4469-b076-7ce6516d02f5}, !- Handle
  Surface 14,                             !- Name
  RoofCeiling,                            !- Surface Type
  {dfa17cf2-3c6b-4b23-b9eb-f4c387efff11}, !- Construction Name
  {8b12bcb1-0632-4fe6-8a8a-f7165d9a355c}, !- Space Name
  Outdoors,                               !- Outside Boundary Condition
  ,                                       !- Outside Boundary Condition Object
  SunExposed,                             !- Sun Exposure
  WindExposed,                            !- Wind Exposure
  ,                                       !- View Factor to Ground
  ,                                       !- Number of Vertices
  13.6310703908387, 3.40776759770968, 1.70388379885484, !- X,Y,Z Vertex 1 {m}
  0, 3.40776759770968, 1.70388379885484,  !- X,Y,Z Vertex 2 {m}
  0, 0, 0,                                !- X,Y,Z Vertex 3 {m}
  13.6310703908387, 0, 0;                 !- X,Y,Z Vertex 4 {m}

OS:Surface,
  {610f6b0c-a991-44fd-8e76-924139422d00}, !- Handle
  Surface 15,                             !- Name
  RoofCeiling,                            !- Surface Type
  {dfa17cf2-3c6b-4b23-b9eb-f4c387efff11}, !- Construction Name
  {8b12bcb1-0632-4fe6-8a8a-f7165d9a355c}, !- Space Name
  Outdoors,                               !- Outside Boundary Condition
  ,                                       !- Outside Boundary Condition Object
  SunExposed,                             !- Sun Exposure
  WindExposed,                            !- Wind Exposure
  ,                                       !- View Factor to Ground
  ,                                       !- Number of Vertices
  0, 3.40776759770968, 1.70388379885484,  !- X,Y,Z Vertex 1 {m}
  13.6310703908387, 3.40776759770968, 1.70388379885484, !- X,Y,Z Vertex 2 {m}
  13.6310703908387, 6.81553519541936, 0,  !- X,Y,Z Vertex 3 {m}
  0, 6.81553519541936, 0;                 !- X,Y,Z Vertex 4 {m}

OS:Surface,
  {cd30194f-3ebb-4465-94d9-1ca84d6ccac5}, !- Handle
  Surface 16,                             !- Name
  Wall,                                   !- Surface Type
  {36d8db24-9a8b-45ad-ac9a-7a9052ae120b}, !- Construction Name
  {8b12bcb1-0632-4fe6-8a8a-f7165d9a355c}, !- Space Name
  Outdoors,                               !- Outside Boundary Condition
  ,                                       !- Outside Boundary Condition Object
  SunExposed,                             !- Sun Exposure
  WindExposed,                            !- Wind Exposure
  ,                                       !- View Factor to Ground
  ,                                       !- Number of Vertices
  0, 3.40776759770968, 1.70388379885484,  !- X,Y,Z Vertex 1 {m}
  0, 6.81553519541936, 0,                 !- X,Y,Z Vertex 2 {m}
  0, 0, 0;                                !- X,Y,Z Vertex 3 {m}

OS:Surface,
  {9f0703fb-9da6-4c67-b23e-c3d830f7d203}, !- Handle
  Surface 17,                             !- Name
  Wall,                                   !- Surface Type
  {36d8db24-9a8b-45ad-ac9a-7a9052ae120b}, !- Construction Name
  {8b12bcb1-0632-4fe6-8a8a-f7165d9a355c}, !- Space Name
  Outdoors,                               !- Outside Boundary Condition
  ,                                       !- Outside Boundary Condition Object
  SunExposed,                             !- Sun Exposure
  WindExposed,                            !- Wind Exposure
  ,                                       !- View Factor to Ground
  ,                                       !- Number of Vertices
  13.6310703908387, 3.40776759770968, 1.70388379885484, !- X,Y,Z Vertex 1 {m}
  13.6310703908387, 0, 0,                 !- X,Y,Z Vertex 2 {m}
  13.6310703908387, 6.81553519541936, 0;  !- X,Y,Z Vertex 3 {m}

OS:Space,
  {8b12bcb1-0632-4fe6-8a8a-f7165d9a355c}, !- Handle
  unfinished attic space,                 !- Name
  ,                                       !- Space Type Name
  ,                                       !- Default Construction Set Name
  ,                                       !- Default Schedule Set Name
  -0,                                     !- Direction of Relative North {deg}
  0,                                      !- X Origin {m}
  0,                                      !- Y Origin {m}
  4.8768,                                 !- Z Origin {m}
  ,                                       !- Building Story Name
  {bbf28105-e53b-4cf4-a8f3-3c33a18c7034}, !- Thermal Zone Name
  ,                                       !- Part of Total Floor Area
  ,                                       !- Design Specification Outdoor Air Object Name
  {1ba9160e-e1ca-4e26-a957-c9699956e015}; !- Building Unit Name

OS:ThermalZone,
  {bbf28105-e53b-4cf4-a8f3-3c33a18c7034}, !- Handle
  unfinished attic zone,                  !- Name
  ,                                       !- Multiplier
  ,                                       !- Ceiling Height {m}
  ,                                       !- Volume {m3}
  ,                                       !- Floor Area {m2}
  ,                                       !- Zone Inside Convection Algorithm
  ,                                       !- Zone Outside Convection Algorithm
  ,                                       !- Zone Conditioning Equipment List Name
  {8917eb5f-8de7-4ccd-8d45-aa22d13aa3e4}, !- Zone Air Inlet Port List
  {7f64387d-65da-4c0c-9128-fef434784890}, !- Zone Air Exhaust Port List
  {67b0b3d3-0f61-4078-a266-dde847d4eae0}, !- Zone Air Node Name
  ,                                       !- Zone Return Air Node Name
  ,                                       !- Primary Daylighting Control Name
  ,                                       !- Fraction of Zone Controlled by Primary Daylighting Control
  ,                                       !- Secondary Daylighting Control Name
  ,                                       !- Fraction of Zone Controlled by Secondary Daylighting Control
  ,                                       !- Illuminance Map Name
  ,                                       !- Group Rendering Name
  ,                                       !- Thermostat Name
  No;                                     !- Use Ideal Air Loads

OS:Node,
  {b3e36207-a467-44c4-bdef-6fb331cb33c9}, !- Handle
  Node 2,                                 !- Name
  {67b0b3d3-0f61-4078-a266-dde847d4eae0}, !- Inlet Port
  ;                                       !- Outlet Port

OS:Connection,
  {67b0b3d3-0f61-4078-a266-dde847d4eae0}, !- Handle
  {f71659da-0dc4-4621-9d2f-fbe7c4fbad53}, !- Name
  {bbf28105-e53b-4cf4-a8f3-3c33a18c7034}, !- Source Object
  11,                                     !- Outlet Port
  {b3e36207-a467-44c4-bdef-6fb331cb33c9}, !- Target Object
  2;                                      !- Inlet Port

OS:PortList,
  {8917eb5f-8de7-4ccd-8d45-aa22d13aa3e4}, !- Handle