!- NOTE: Auto-generated from /test/osw_files/SFD_HVACSizing_Equip_MissingBeds.osw

OS:Version,
  {fc003c06-618b-4051-9b37-6b6f71b12672}, !- Handle
  2.2.0;                                  !- Version Identifier

OS:Building,
  {bf305633-c5a1-4881-9edf-ca5e1a8e1274}, !- Handle
  Building,                               !- Name
  ,                                       !- Building Sector Type
  ,                                       !- North Axis {deg}
  ,                                       !- Nominal Floor to Floor Height {m}
  ,                                       !- Space Type Name
  ,                                       !- Default Construction Set Name
  ,                                       !- Default Schedule Set Name
  4,                                      !- Standards Number of Stories
  3,                                      !- Standards Number of Above Ground Stories
  singlefamilydetached,                   !- Standards Building Type
  1;                                      !- Standards Number of Living Units

OS:YearDescription,
  {513d8dda-86cb-442a-b01c-1f7f0e0ac70e}; !- Handle

OS:SimulationControl,
  {2c487a4c-bac9-4ac5-b669-1e49d9da7c2b}, !- Handle
  ,                                       !- Do Zone Sizing Calculation
  ,                                       !- Do System Sizing Calculation
  ,                                       !- Do Plant Sizing Calculation
  No,                                     !- Run Simulation for Sizing Periods
  ;                                       !- Run Simulation for Weather File Run Periods

OS:Timestep,
  {4ebc9f1e-4707-402e-9844-67eb1ffbd522}, !- Handle
  6;                                      !- Number of Timesteps per Hour

OS:RunPeriod,
  {28df894d-6af9-4fb8-8f56-df1753344aa3}, !- Handle
  Run Period,                             !- Name
  1,                                      !- Begin Month
  1,                                      !- Begin Day of Month
  12,                                     !- End Month
  31,                                     !- End Day of Month
  ,                                       !- Use Weather File Holidays and Special Days
  ,                                       !- Use Weather File Daylight Saving Period
  ,                                       !- Apply Weekend Holiday Rule
  ,                                       !- Use Weather File Rain Indicators
  ,                                       !- Use Weather File Snow Indicators
  ;                                       !- Number of Times Runperiod to be Repeated

OS:Sizing:Parameters,
  {dde5af6f-7923-4600-a28a-7556673a0266}, !- Handle
  1.0,                                    !- Heating Sizing Factor
  1.0;                                    !- Cooling Sizing Factor

OS:ShadowCalculation,
  {ca758bea-4416-4626-9bba-3d8795c79bd6}, !- Handle
  20,                                     !- Calculation Frequency
  200;                                    !- Maximum Figures in Shadow Overlap Calculations

OS:SurfaceConvectionAlgorithm:Inside,
  {aaabfc36-718a-4ab0-b622-f186ebb45230}, !- Handle
  TARP;                                   !- Algorithm

OS:SurfaceConvectionAlgorithm:Outside,
  {9a0a9f6f-4bbd-4b12-a121-9492a1fcd7d6}, !- Handle
  DOE-2;                                  !- Algorithm

OS:HeatBalanceAlgorithm,
  {9d93e563-e1e0-46d7-9e39-d1c8aceb7212}, !- Handle
  ConductionTransferFunction,             !- Algorithm
  200;                                    !- Surface Temperature Upper Limit {C}

OS:ZoneCapacitanceMultiplier:ResearchSpecial,
  {6bfced16-b16f-47f6-8223-f7e267d75d19}, !- Handle
  ,                                       !- Temperature Capacity Multiplier
  15,                                     !- Humidity Capacity Multiplier
  ;                                       !- Carbon Dioxide Capacity Multiplier

OS:Site,
  {4629948b-c113-4a92-beed-f2708aed4dea}, !- Handle
  Denver Intl Ap_CO_USA,                  !- Name
  39.83,                                  !- Latitude {deg}
  -104.65,                                !- Longitude {deg}
  -7,                                     !- Time Zone {hr}
  1650,                                   !- Elevation {m}
  ;                                       !- Terrain

OS:WeatherFile,
  {eb73640f-f3d9-408f-887c-af14e3cbe6cd}, !- Handle
  Denver Intl Ap,                         !- City
  CO,                                     !- State Province Region
  USA,                                    !- Country
  TMY3,                                   !- Data Source
  725650,                                 !- WMO Number
  39.83,                                  !- Latitude {deg}
  -104.65,                                !- Longitude {deg}
  -7,                                     !- Time Zone {hr}
  1650,                                   !- Elevation {m}
  file:../tests/USA_CO_Denver_Intl_AP_725650_TMY3.epw, !- Url
  E23378AA;                               !- Checksum

OS:ClimateZones,
  {ced4c38a-dc73-4b66-829e-ff866ab3cb83}, !- Handle
  ,                                       !- Active Institution
  ,                                       !- Active Year
  ,                                       !- Climate Zone Institution Name 1
  ,                                       !- Climate Zone Document Name 1
  ,                                       !- Climate Zone Document Year 1
  ,                                       !- Climate Zone Value 1
  Building America,                       !- Climate Zone Institution Name 2
  ,                                       !- Climate Zone Document Name 2
  0,                                      !- Climate Zone Document Year 2
  Cold;                                   !- Climate Zone Value 2

OS:Site:WaterMainsTemperature,
  {e71eb3a9-8c3d-4262-8ac9-611fb19b8584}, !- Handle
  Correlation,                            !- Calculation Method
  ,                                       !- Temperature Schedule Name
  10.8753424657535,                       !- Annual Average Outdoor Air Temperature {C}
  23.1524007936508;                       !- Maximum Difference In Monthly Average Outdoor Air Temperatures {deltaC}

OS:RunPeriodControl:DaylightSavingTime,
  {04af9619-d1c9-4df4-95d2-5e0384cbc264}, !- Handle
  4/7,                                    !- Start Date
  10/26;                                  !- End Date

OS:Site:GroundTemperature:BuildingSurface,
  {e8fbcfaa-fcd6-4248-8333-a770572e6e1f}, !- Handle
  6.71220717182217,                       !- January Ground Temperature {C}
  4.94160315792055,                       !- February Ground Temperature {C}
  4.79814094732353,                       !- March Ground Temperature {C}
  5.63626323951138,                       !- April Ground Temperature {C}
  9.00496422788996,                       !- May Ground Temperature {C}
  12.3607918495591,                       !- June Ground Temperature {C}
  15.2732325604715,                       !- July Ground Temperature {C}
  17.1228426206644,                       !- August Ground Temperature {C}
  17.2883239591317,                       !- September Ground Temperature {C}
  15.7978912711895,                       !- October Ground Temperature {C}
  12.9685430093462,                       !- November Ground Temperature {C}
  9.71587840323366;                       !- December Ground Temperature {C}

OS:Site:GroundTemperature:Deep,
  {17b8fd53-583b-4abb-9156-a634dc031fd9}, !- Handle
  10.8753424657535,                       !- January Deep Ground Temperature {C}
  10.8753424657535,                       !- February Deep Ground Temperature {C}
  10.8753424657535,                       !- March Deep Ground Temperature {C}
  10.8753424657535,                       !- April Deep Ground Temperature {C}
  10.8753424657535,                       !- May Deep Ground Temperature {C}
  10.8753424657535,                       !- June Deep Ground Temperature {C}
  10.8753424657535,                       !- July Deep Ground Temperature {C}
  10.8753424657535,                       !- August Deep Ground Temperature {C}
  10.8753424657535,                       !- September Deep Ground Temperature {C}
  10.8753424657535,                       !- October Deep Ground Temperature {C}
  10.8753424657535,                       !- November Deep Ground Temperature {C}
  10.8753424657535;                       !- December Deep Ground Temperature {C}

OS:ThermalZone,
  {a7c7695b-d07b-422e-a6d4-b952e8f25f0d}, !- Handle
  living zone,                            !- Name
  ,                                       !- Multiplier
  ,                                       !- Ceiling Height {m}
  ,                                       !- Volume {m3}
  ,                                       !- Floor Area {m2}
  ,                                       !- Zone Inside Convection Algorithm
  ,                                       !- Zone Outside Convection Algorithm
  ,                                       !- Zone Conditioning Equipment List Name
  {8d8782ca-b806-46bb-b002-389fe722638d}, !- Zone Air Inlet Port List
  {77e6bfe4-5397-4f3d-9ac1-1be7160d3e9e}, !- Zone Air Exhaust Port List
  {4943de3e-daf0-47e5-9b7f-6576db379ad5}, !- Zone Air Node Name
  ,                                       !- Zone Return Air Node Name
  ,                                       !- Primary Daylighting Control Name
  ,                                       !- Fraction of Zone Controlled by Primary Daylighting Control
  ,                                       !- Secondary Daylighting Control Name
  ,                                       !- Fraction of Zone Controlled by Secondary Daylighting Control
  ,                                       !- Illuminance Map Name
  ,                                       !- Group Rendering Name
  ,                                       !- Thermostat Name
  No;                                     !- Use Ideal Air Loads

OS:Node,
  {26ab490b-31a5-4945-9530-eb69637e4b9e}, !- Handle
  Node 1,                                 !- Name
  {4943de3e-daf0-47e5-9b7f-6576db379ad5}, !- Inlet Port
  ;                                       !- Outlet Port

OS:Connection,
  {4943de3e-daf0-47e5-9b7f-6576db379ad5}, !- Handle
  {5d56b2ba-bb57-4ecf-94ff-9200a6aefddd}, !- Name
  {a7c7695b-d07b-422e-a6d4-b952e8f25f0d}, !- Source Object
  11,                                     !- Outlet Port
  {26ab490b-31a5-4945-9530-eb69637e4b9e}, !- Target Object
  2;                                      !- Inlet Port

OS:PortList,
  {8d8782ca-b806-46bb-b002-389fe722638d}, !- Handle
  {7aaa45e3-8b59-4e22-90a7-2f4ee2ec16ce}, !- Name
  {a7c7695b-d07b-422e-a6d4-b952e8f25f0d}; !- HVAC Component

OS:PortList,
  {77e6bfe4-5397-4f3d-9ac1-1be7160d3e9e}, !- Handle
  {55c31e09-9b70-42d9-bc14-cf3db40499ab}, !- Name
  {a7c7695b-d07b-422e-a6d4-b952e8f25f0d}; !- HVAC Component

OS:Sizing:Zone,
  {23167bea-e56b-4975-87dc-95dc8b22c6a3}, !- Handle
  {a7c7695b-d07b-422e-a6d4-b952e8f25f0d}, !- Zone or ZoneList Name
  SupplyAirTemperature,                   !- Zone Cooling Design Supply Air Temperature Input Method
  14,                                     !- Zone Cooling Design Supply Air Temperature {C}
  11.11,                                  !- Zone Cooling Design Supply Air Temperature Difference {deltaC}
  SupplyAirTemperature,                   !- Zone Heating Design Supply Air Temperature Input Method
  40,                                     !- Zone Heating Design Supply Air Temperature {C}
  11.11,                                  !- Zone Heating Design Supply Air Temperature Difference {deltaC}
  0.0085,                                 !- Zone Cooling Design Supply Air Humidity Ratio {kg-H2O/kg-air}
  0.008,                                  !- Zone Heating Design Supply Air Humidity Ratio {kg-H2O/kg-air}
  ,                                       !- Zone Heating Sizing Factor
  ,                                       !- Zone Cooling Sizing Factor
  DesignDay,                              !- Cooling Design Air Flow Method
  ,                                       !- Cooling Design Air Flow Rate {m3/s}
  ,                                       !- Cooling Minimum Air Flow per Zone Floor Area {m3/s-m2}
  ,                                       !- Cooling Minimum Air Flow {m3/s}
  ,                                       !- Cooling Minimum Air Flow Fraction
  DesignDay,                              !- Heating Design Air Flow Method
  ,                                       !- Heating Design Air Flow Rate {m3/s}
  ,                                       !- Heating Maximum Air Flow per Zone Floor Area {m3/s-m2}
  ,                                       !- Heating Maximum Air Flow {m3/s}
  ,                                       !- Heating Maximum Air Flow Fraction
  ,                                       !- Design Zone Air Distribution Effectiveness in Cooling Mode
  ,                                       !- Design Zone Air Distribution Effectiveness in Heating Mode
  No,                                     !- Account for Dedicated Outdoor Air System
  NeutralSupplyAir,                       !- Dedicated Outdoor Air System Control Strategy
  autosize,                               !- Dedicated Outdoor Air Low Setpoint Temperature for Design {C}
  autosize;                               !- Dedicated Outdoor Air High Setpoint Temperature for Design {C}

OS:ZoneHVAC:EquipmentList,
  {d7533b88-0476-49b6-a013-9d3e17c66f95}, !- Handle
  Zone HVAC Equipment List 1,             !- Name
  {a7c7695b-d07b-422e-a6d4-b952e8f25f0d}; !- Thermal Zone

OS:ThermalZone,
  {4b6d2159-0008-4cff-8007-5e338eaa4429}, !- Handle
  garage zone,                            !- Name
  ,                                       !- Multiplier
  ,                                       !- Ceiling Height {m}
  ,                                       !- Volume {m3}
  ,                                       !- Floor Area {m2}
  ,                                       !- Zone Inside Convection Algorithm
  ,                                       !- Zone Outside Convection Algorithm
  ,                                       !- Zone Conditioning Equipment List Name
  {135c89c2-8a2f-4640-b931-5be9072c6936}, !- Zone Air Inlet Port List
  {73ee5802-2f67-4f54-a815-99c86787a883}, !- Zone Air Exhaust Port List
  {d1a0f2be-a4c0-4fc0-a1a2-92c68d8fb821}, !- Zone Air Node Name
  ,                                       !- Zone Return Air Node Name
  ,                                       !- Primary Daylighting Control Name
  ,                                       !- Fraction of Zone Controlled by Primary Daylighting Control
  ,                                       !- Secondary Daylighting Control Name
  ,                                       !- Fraction of Zone Controlled by Secondary Daylighting Control
  ,                                       !- Illuminance Map Name
  ,                                       !- Group Rendering Name
  ,                                       !- Thermostat Name
  No;                                     !- Use Ideal Air Loads

OS:Node,
  {6275e4f8-0cf1-4810-8b41-526ab1636999}, !- Handle
  Node 2,                                 !- Name
  {d1a0f2be-a4c0-4fc0-a1a2-92c68d8fb821}, !- Inlet Port
  ;                                       !- Outlet Port

OS:Connection,
  {d1a0f2be-a4c0-4fc0-a1a2-92c68d8fb821}, !- Handle
  {4a686437-c3c5-4541-9c6e-e2fb589bdb79}, !- Name
  {4b6d2159-0008-4cff-8007-5e338eaa4429}, !- Source Object
  11,                                     !- Outlet Port
  {6275e4f8-0cf1-4810-8b41-526ab1636999}, !- Target Object
  2;                                      !- Inlet Port

OS:PortList,
  {135c89c2-8a2f-4640-b931-5be9072c6936}, !- Handle
  {0239dcc8-7c0f-4ec9-b2a6-cb08739c4a65}, !- Name
  {4b6d2159-0008-4cff-8007-5e338eaa4429}; !- HVAC Component

OS:PortList,
  {73ee5802-2f67-4f54-a815-99c86787a883}, !- Handle
  {afc68136-58d5-43ec-b56a-7d8677edd691}, !- Name
  {4b6d2159-0008-4cff-8007-5e338eaa4429}; !- HVAC Component

OS:Sizing:Zone,
  {f36895b7-68a9-402b-ae9e-a0d6a8d399ca}, !- Handle
  {4b6d2159-0008-4cff-8007-5e338eaa4429}, !- Zone or ZoneList Name
  SupplyAirTemperature,                   !- Zone Cooling Design Supply Air Temperature Input Method
  14,                                     !- Zone Cooling Design Supply Air Temperature {C}
  11.11,                                  !- Zone Cooling Design Supply Air Temperature Difference {deltaC}
  SupplyAirTemperature,                   !- Zone Heating Design Supply Air Temperature Input Method
  40,                                     !- Zone Heating Design Supply Air Temperature {C}
  11.11,                                  !- Zone Heating Design Supply Air Temperature Difference {deltaC}
  0.0085,                                 !- Zone Cooling Design Supply Air Humidity Ratio {kg-H2O/kg-air}
  0.008,                                  !- Zone Heating Design Supply Air Humidity Ratio {kg-H2O/kg-air}
  ,                                       !- Zone Heating Sizing Factor
  ,                                       !- Zone Cooling Sizing Factor
  DesignDay,                              !- Cooling Design Air Flow Method
  ,                                       !- Cooling Design Air Flow Rate {m3/s}
  ,                                       !- Cooling Minimum Air Flow per Zone Floor Area {m3/s-m2}
  ,                                       !- Cooling Minimum Air Flow {m3/s}
  ,                                       !- Cooling Minimum Air Flow Fraction
  DesignDay,                              !- Heating Design Air Flow Method
  ,                                       !- Heating Design Air Flow Rate {m3/s}
  ,                                       !- Heating Maximum Air Flow per Zone Floor Area {m3/s-m2}
  ,                                       !- Heating Maximum Air Flow {m3/s}
  ,                                       !- Heating Maximum Air Flow Fraction
  ,                                       !- Design Zone Air Distribution Effectiveness in Cooling Mode
  ,                                       !- Design Zone Air Distribution Effectiveness in Heating Mode
  No,                                     !- Account for Dedicated Outdoor Air System
  NeutralSupplyAir,                       !- Dedicated Outdoor Air System Control Strategy
  autosize,                               !- Dedicated Outdoor Air Low Setpoint Temperature for Design {C}
  autosize;                               !- Dedicated Outdoor Air High Setpoint Temperature for Design {C}

OS:ZoneHVAC:EquipmentList,
  {8335fd68-1f79-4d87-ab3b-6dab8e3ad98b}, !- Handle
  Zone HVAC Equipment List 2,             !- Name
  {4b6d2159-0008-4cff-8007-5e338eaa4429}; !- Thermal Zone

OS:Space,
  {b775ce8b-63cf-43ae-8e87-cb0833fe99e9}, !- Handle
  garage space,                           !- Name
  ,                                       !- Space Type Name
  ,                                       !- Default Construction Set Name
  ,                                       !- Default Schedule Set Name
  -0,                                     !- Direction of Relative North {deg}
  0,                                      !- X Origin {m}
  0,                                      !- Y Origin {m}
  0,                                      !- Z Origin {m}
  ,                                       !- Building Story Name
  {4b6d2159-0008-4cff-8007-5e338eaa4429}, !- Thermal Zone Name
  ,                                       !- Part of Total Floor Area
  ,                                       !- Design Specification Outdoor Air Object Name
  {31fe1896-eb58-41b9-86bd-e5f42134fd98}; !- Building Unit Name

OS:Surface,
  {a3f1836b-c86e-4539-aba9-278d9d594f6a}, !- Handle
  Surface 1,                              !- Name
  Floor,                                  !- Surface Type
  {eb08ba06-25bf-433e-8322-eb24c03c58b9}, !- Construction Name
  {b775ce8b-63cf-43ae-8e87-cb0833fe99e9}, !- Space Name
  Ground,                                 !- Outside Boundary Condition
  ,                                       !- Outside Boundary Condition Object
  NoSun,                                  !- Sun Exposure
  NoWind,                                 !- Wind Exposure
  ,                                       !- View Factor to Ground
  ,                                       !- Number of Vertices
  7.6199999993904, -3.048, 0,             !- X,Y,Z Vertex 1 {m}
  7.6199999993904, 3.048, 0,              !- X,Y,Z Vertex 2 {m}
  11.2775999993904, 3.048, 0,             !- X,Y,Z Vertex 3 {m}
  11.2775999993904, -3.048, 0;            !- X,Y,Z Vertex 4 {m}

OS:Surface,
  {487e726f-1aeb-49ec-adc1-a9de2c9ebb96}, !- Handle
  Surface 2,                              !- Name
  Wall,                                   !- Surface Type
  {fead5163-a032-4d66-b6ea-4de20ca17123}, !- Construction Name
  {b775ce8b-63cf-43ae-8e87-cb0833fe99e9}, !- Space Name
  Surface,                                !- Outside Boundary Condition
  {42d23e96-6e30-4811-8730-e466c0465981}, !- Outside Boundary Condition Object
  NoSun,                                  !- Sun Exposure
  NoWind,                                 !- Wind Exposure
  ,                                       !- View Factor to Ground
  ,                                       !- Number of Vertices
  7.6199999993904, 3.048, 2.4384,         !- X,Y,Z Vertex 1 {m}
  7.6199999993904, 3.048, 0,              !- X,Y,Z Vertex 2 {m}
  7.6199999993904, 0, 0,                  !- X,Y,Z Vertex 3 {m}
  7.6199999993904, 0, 2.4384;             !- X,Y,Z Vertex 4 {m}

OS:Surface,
  {966d118c-1b47-42ed-96c0-8c0bdcc3db70}, !- Handle
  Surface 3,                              !- Name
  Wall,                                   !- Surface Type
  {fead5163-a032-4d66-b6ea-4de20ca17123}, !- Construction Name
  {b775ce8b-63cf-43ae-8e87-cb0833fe99e9}, !- Space Name
  Surface,                                !- Outside Boundary Condition
  {212de521-c95c-4788-b036-6468ebad388f}, !- Outside Boundary Condition Object
  NoSun,                                  !- Sun Exposure
  NoWind,                                 !- Wind Exposure
  ,                                       !- View Factor to Ground
  ,                                       !- Number of Vertices
  11.2775999993904, 3.048, 2.4384,        !- X,Y,Z Vertex 1 {m}
  11.2775999993904, 3.048, 0,             !- X,Y,Z Vertex 2 {m}
  7.6199999993904, 3.048, 0,              !- X,Y,Z Vertex 3 {m}
  7.6199999993904, 3.048, 2.4384;         !- X,Y,Z Vertex 4 {m}

OS:Surface,
  {99b60e9a-2986-423a-a937-158257f2a201}, !- Handle
  Surface 4,                              !- Name
  Wall,                                   !- Surface Type
  {9fb62e83-4501-49b0-8b16-6091d8e4b1cc}, !- Construction Name
  {b775ce8b-63cf-43ae-8e87-cb0833fe99e9}, !- Space Name
  Outdoors,                               !- Outside Boundary Condition
  ,                                       !- Outside Boundary Condition Object
  SunExposed,                             !- Sun Exposure
  WindExposed,                            !- Wind Exposure
  ,                                       !- View Factor to Ground
  ,                                       !- Number of Vertices
  11.2775999993904, -3.048, 2.4384,       !- X,Y,Z Vertex 1 {m}
  11.2775999993904, -3.048, 0,            !- X,Y,Z Vertex 2 {m}
  11.2775999993904, 3.048, 0,             !- X,Y,Z Vertex 3 {m}
  11.2775999993904, 3.048, 2.4384;        !- X,Y,Z Vertex 4 {m}

OS:Surface,
  {4af5753c-c6b8-455e-9192-8957caa5c1c9}, !- Handle
  Surface 5,                              !- Name
  Wall,                                   !- Surface Type
  {9fb62e83-4501-49b0-8b16-6091d8e4b1cc}, !- Construction Name
  {b775ce8b-63cf-43ae-8e87-cb0833fe99e9}, !- Space Name
  Outdoors,                               !- Outside Boundary Condition
  ,                                       !- Outside Boundary Condition Object
  SunExposed,                             !- Sun Exposure
  WindExposed,                            !- Wind Exposure
  ,                                       !- View Factor to Ground
  ,                                       !- Number of Vertices
  7.6199999993904, -3.048, 2.4384,        !- X,Y,Z Vertex 1 {m}
  7.6199999993904, -3.048, 0,             !- X,Y,Z Vertex 2 {m}
  11.2775999993904, -3.048, 0,            !- X,Y,Z Vertex 3 {m}
  11.2775999993904, -3.048, 2.4384;       !- X,Y,Z Vertex 4 {m}

OS:Surface,
  {d5da29c2-6b4b-4575-94f9-ada4b1cd9f97}, !- Handle
  Surface 6,                              !- Name
  RoofCeiling,                            !- Surface Type
  {2ccf253e-46bb-4970-9036-a24bf2e04db2}, !- Construction Name
  {b775ce8b-63cf-43ae-8e87-cb0833fe99e9}, !- Space Name
  Surface,                                !- Outside Boundary Condition
  {2c5bfbc0-5291-49f2-9b9f-5827f090a350}, !- Outside Boundary Condition Object
  NoSun,                                  !- Sun Exposure
  NoWind,                                 !- Wind Exposure
  ,                                       !- View Factor to Ground
  ,                                       !- Number of Vertices
  11.2775999993904, -3.048, 2.4384,       !- X,Y,Z Vertex 1 {m}
  11.2775999993904, 3.048, 2.4384,        !- X,Y,Z Vertex 2 {m}
  7.6199999993904, 3.048, 2.4384,         !- X,Y,Z Vertex 3 {m}
  7.6199999993904, -3.048, 2.4384;        !- X,Y,Z Vertex 4 {m}

OS:Space,
  {0fb06b44-5509-432a-96e3-f76e61f8ff6e}, !- Handle
  living space,                           !- Name
  ,                                       !- Space Type Name
  ,                                       !- Default Construction Set Name
  ,                                       !- Default Schedule Set Name
  -0,                                     !- Direction of Relative North {deg}
  0,                                      !- X Origin {m}
  0,                                      !- Y Origin {m}
  0,                                      !- Z Origin {m}
  ,                                       !- Building Story Name
  {a7c7695b-d07b-422e-a6d4-b952e8f25f0d}, !- Thermal Zone Name
  ,                                       !- Part of Total Floor Area
  ,                                       !- Design Specification Outdoor Air Object Name
  {31fe1896-eb58-41b9-86bd-e5f42134fd98}; !- Building Unit Name

OS:Surface,
  {5fccfec3-5bb1-4b8c-924d-59f09ef96f35}, !- Handle
  Surface 7,                              !- Name
  Floor,                                  !- Surface Type
  {a0f007c7-f324-4aea-9f88-025fb8442264}, !- Construction Name
  {0fb06b44-5509-432a-96e3-f76e61f8ff6e}, !- Space Name
  Surface,                                !- Outside Boundary Condition
  {ec378985-1472-42b2-91c1-3b768d313149}, !- Outside Boundary Condition Object
  NoSun,                                  !- Sun Exposure
  NoWind,                                 !- Wind Exposure
  ,                                       !- View Factor to Ground
  ,                                       !- Number of Vertices
  0, 0, 0,                                !- X,Y,Z Vertex 1 {m}
  0, 7.01040000037894, 0,                 !- X,Y,Z Vertex 2 {m}
  11.2775999993904, 7.01040000037894, 0,  !- X,Y,Z Vertex 3 {m}
  11.2775999993904, 3.048, 0,             !- X,Y,Z Vertex 4 {m}
  7.6199999993904, 3.048, 0,              !- X,Y,Z Vertex 5 {m}
  7.6199999993904, 0, 0;                  !- X,Y,Z Vertex 6 {m}

OS:Surface,
  {06db93fc-b8ef-48cd-bcc9-7ff40b7e979c}, !- Handle
  Surface 8,                              !- Name
  Wall,                                   !- Surface Type
  {3d5a13d6-228d-4564-b4c5-516731ead3a2}, !- Construction Name
  {0fb06b44-5509-432a-96e3-f76e61f8ff6e}, !- Space Name
  Outdoors,                               !- Outside Boundary Condition
  ,                                       !- Outside Boundary Condition Object
  SunExposed,                             !- Sun Exposure
  WindExposed,                            !- Wind Exposure
  ,                                       !- View Factor to Ground
  ,                                       !- Number of Vertices
  0, 7.01040000037894, 2.4384,            !- X,Y,Z Vertex 1 {m}
  0, 7.01040000037894, 0,                 !- X,Y,Z Vertex 2 {m}
  0, 0, 0,                                !- X,Y,Z Vertex 3 {m}
  0, 0, 2.4384;                           !- X,Y,Z Vertex 4 {m}

OS:Surface,
  {6ec526d1-9ca7-4039-95ee-d4e5132b55f8}, !- Handle
  Surface 9,                              !- Name
  Wall,                                   !- Surface Type
  {3d5a13d6-228d-4564-b4c5-516731ead3a2}, !- Construction Name
  {0fb06b44-5509-432a-96e3-f76e61f8ff6e}, !- Space Name
  Outdoors,                               !- Outside Boundary Condition
  ,                                       !- Outside Boundary Condition Object
  SunExposed,                             !- Sun Exposure
  WindExposed,                            !- Wind Exposure
  ,                                       !- View Factor to Ground
  ,                                       !- Number of Vertices
  11.2775999993904, 7.01040000037894, 2.4384, !- X,Y,Z Vertex 1 {m}
  11.2775999993904, 7.01040000037894, 0,  !- X,Y,Z Vertex 2 {m}
  0, 7.01040000037894, 0,                 !- X,Y,Z Vertex 3 {m}
  0, 7.01040000037894, 2.4384;            !- X,Y,Z Vertex 4 {m}

OS:Surface,
  {25b6f5b7-5ab8-435a-8bbb-101f3e0d0497}, !- Handle
  Surface 10,                             !- Name
  Wall,                                   !- Surface Type
  {3d5a13d6-228d-4564-b4c5-516731ead3a2}, !- Construction Name
  {0fb06b44-5509-432a-96e3-f76e61f8ff6e}, !- Space Name
  Outdoors,                               !- Outside Boundary Condition
  ,                                       !- Outside Boundary Condition Object
  SunExposed,                             !- Sun Exposure
  WindExposed,                            !- Wind Exposure
  ,                                       !- View Factor to Ground
  ,                                       !- Number of Vertices
  11.2775999993904, 3.048, 2.4384,        !- X,Y,Z Vertex 1 {m}
  11.2775999993904, 3.048, 0,             !- X,Y,Z Vertex 2 {m}