!- NOTE: Auto-generated from /test/osw_files/SFD_2000sqft_2story_SL_GRG_UA_Windows_Doors.osw

OS:Version,
  {fc003c06-618b-4051-9b37-6b6f71b12672}, !- Handle
  2.2.0;                                  !- Version Identifier

OS:Building,
  {bf305633-c5a1-4881-9edf-ca5e1a8e1274}, !- Handle
  Building,                               !- Name
  ,                                       !- Building Sector Type
  ,                                       !- North Axis {deg}
  ,                                       !- Nominal Floor to Floor Height {m}
  ,                                       !- Space Type Name
  ,                                       !- Default Construction Set Name
  ,                                       !- Default Schedule Set Name
  2,                                      !- Standards Number of Stories
  2,                                      !- Standards Number of Above Ground Stories
  singlefamilydetached,                   !- Standards Building Type
  1;                                      !- Standards Number of Living Units

OS:YearDescription,
  {513d8dda-86cb-442a-b01c-1f7f0e0ac70e}; !- Handle

OS:SimulationControl,
  {2c487a4c-bac9-4ac5-b669-1e49d9da7c2b}, !- Handle
  ,                                       !- Do Zone Sizing Calculation
  ,                                       !- Do System Sizing Calculation
  ,                                       !- Do Plant Sizing Calculation
  No,                                     !- Run Simulation for Sizing Periods
  ;                                       !- Run Simulation for Weather File Run Periods

OS:Timestep,
  {4ebc9f1e-4707-402e-9844-67eb1ffbd522}, !- Handle
  6;                                      !- Number of Timesteps per Hour

OS:RunPeriod,
  {28df894d-6af9-4fb8-8f56-df1753344aa3}, !- Handle
  Run Period,                             !- Name
  1,                                      !- Begin Month
  1,                                      !- Begin Day of Month
  12,                                     !- End Month
  31,                                     !- End Day of Month
  ,                                       !- Use Weather File Holidays and Special Days
  ,                                       !- Use Weather File Daylight Saving Period
  ,                                       !- Apply Weekend Holiday Rule
  ,                                       !- Use Weather File Rain Indicators
  ,                                       !- Use Weather File Snow Indicators
  ;                                       !- Number of Times Runperiod to be Repeated

OS:Sizing:Parameters,
  {dde5af6f-7923-4600-a28a-7556673a0266}, !- Handle
  1.0,                                    !- Heating Sizing Factor
  1.0;                                    !- Cooling Sizing Factor

OS:ShadowCalculation,
  {ca758bea-4416-4626-9bba-3d8795c79bd6}, !- Handle
  20,                                     !- Calculation Frequency
  200;                                    !- Maximum Figures in Shadow Overlap Calculations

OS:SurfaceConvectionAlgorithm:Inside,
  {aaabfc36-718a-4ab0-b622-f186ebb45230}, !- Handle
  TARP;                                   !- Algorithm

OS:SurfaceConvectionAlgorithm:Outside,
  {9a0a9f6f-4bbd-4b12-a121-9492a1fcd7d6}, !- Handle
  DOE-2;                                  !- Algorithm

OS:HeatBalanceAlgorithm,
  {9d93e563-e1e0-46d7-9e39-d1c8aceb7212}, !- Handle
  ConductionTransferFunction,             !- Algorithm
  200;                                    !- Surface Temperature Upper Limit {C}

OS:ZoneCapacitanceMultiplier:ResearchSpecial,
  {6bfced16-b16f-47f6-8223-f7e267d75d19}, !- Handle
  ,                                       !- Temperature Capacity Multiplier
  15,                                     !- Humidity Capacity Multiplier
  ;                                       !- Carbon Dioxide Capacity Multiplier

OS:ThermalZone,
  {4005dc5b-0d1a-4104-a3e5-948aad0cef12}, !- Handle
  living zone,                            !- Name
  ,                                       !- Multiplier
  ,                                       !- Ceiling Height {m}
  ,                                       !- Volume {m3}
  ,                                       !- Floor Area {m2}
  ,                                       !- Zone Inside Convection Algorithm
  ,                                       !- Zone Outside Convection Algorithm
  ,                                       !- Zone Conditioning Equipment List Name
  {b419cc20-d3f7-48eb-adb8-d2a4f7fd5653}, !- Zone Air Inlet Port List
  {2c776900-6603-4002-80fd-0b7bca56234b}, !- Zone Air Exhaust Port List
  {8fe091ce-96d1-488a-87f0-f75d5ffacc9a}, !- Zone Air Node Name
  ,                                       !- Zone Return Air Node Name
  ,                                       !- Primary Daylighting Control Name
  ,                                       !- Fraction of Zone Controlled by Primary Daylighting Control
  ,                                       !- Secondary Daylighting Control Name
  ,                                       !- Fraction of Zone Controlled by Secondary Daylighting Control
  ,                                       !- Illuminance Map Name
  ,                                       !- Group Rendering Name
  ,                                       !- Thermostat Name
  No;                                     !- Use Ideal Air Loads

OS:Node,
  {76e91745-4bbf-4e5e-9201-e79bac3b600e}, !- Handle
  Node 1,                                 !- Name
  {8fe091ce-96d1-488a-87f0-f75d5ffacc9a}, !- Inlet Port
  ;                                       !- Outlet Port

OS:Connection,
  {8fe091ce-96d1-488a-87f0-f75d5ffacc9a}, !- Handle
  {543502c1-2bc0-44f8-a038-871b3233cd25}, !- Name
  {4005dc5b-0d1a-4104-a3e5-948aad0cef12}, !- Source Object
  11,                                     !- Outlet Port
  {76e91745-4bbf-4e5e-9201-e79bac3b600e}, !- Target Object
  2;                                      !- Inlet Port

OS:PortList,
  {b419cc20-d3f7-48eb-adb8-d2a4f7fd5653}, !- Handle
  {feedada5-2cd9-4e91-8f18-8069abedf5b4}, !- Name
  {4005dc5b-0d1a-4104-a3e5-948aad0cef12}; !- HVAC Component

OS:PortList,
  {2c776900-6603-4002-80fd-0b7bca56234b}, !- Handle
  {35f5166a-9363-493e-822b-72f2b7a2de1d}, !- Name
  {4005dc5b-0d1a-4104-a3e5-948aad0cef12}; !- HVAC Component

OS:Sizing:Zone,
  {a33ab7fd-fdc4-4fa6-9ae3-5cdf8b8e1f50}, !- Handle
  {4005dc5b-0d1a-4104-a3e5-948aad0cef12}, !- Zone or ZoneList Name
  SupplyAirTemperature,                   !- Zone Cooling Design Supply Air Temperature Input Method
  14,                                     !- Zone Cooling Design Supply Air Temperature {C}
  11.11,                                  !- Zone Cooling Design Supply Air Temperature Difference {deltaC}
  SupplyAirTemperature,                   !- Zone Heating Design Supply Air Temperature Input Method
  40,                                     !- Zone Heating Design Supply Air Temperature {C}
  11.11,                                  !- Zone Heating Design Supply Air Temperature Difference {deltaC}
  0.0085,                                 !- Zone Cooling Design Supply Air Humidity Ratio {kg-H2O/kg-air}
  0.008,                                  !- Zone Heating Design Supply Air Humidity Ratio {kg-H2O/kg-air}
  ,                                       !- Zone Heating Sizing Factor
  ,                                       !- Zone Cooling Sizing Factor
  DesignDay,                              !- Cooling Design Air Flow Method
  ,                                       !- Cooling Design Air Flow Rate {m3/s}
  ,                                       !- Cooling Minimum Air Flow per Zone Floor Area {m3/s-m2}
  ,                                       !- Cooling Minimum Air Flow {m3/s}
  ,                                       !- Cooling Minimum Air Flow Fraction
  DesignDay,                              !- Heating Design Air Flow Method
  ,                                       !- Heating Design Air Flow Rate {m3/s}
  ,                                       !- Heating Maximum Air Flow per Zone Floor Area {m3/s-m2}
  ,                                       !- Heating Maximum Air Flow {m3/s}
  ,                                       !- Heating Maximum Air Flow Fraction
  ,                                       !- Design Zone Air Distribution Effectiveness in Cooling Mode
  ,                                       !- Design Zone Air Distribution Effectiveness in Heating Mode
  No,                                     !- Account for Dedicated Outdoor Air System
  NeutralSupplyAir,                       !- Dedicated Outdoor Air System Control Strategy
  autosize,                               !- Dedicated Outdoor Air Low Setpoint Temperature for Design {C}
  autosize;                               !- Dedicated Outdoor Air High Setpoint Temperature for Design {C}

OS:ZoneHVAC:EquipmentList,
  {5db368ce-da23-4797-b97b-d74d3873e79b}, !- Handle
  Zone HVAC Equipment List 1,             !- Name
  {4005dc5b-0d1a-4104-a3e5-948aad0cef12}; !- Thermal Zone

OS:ThermalZone,
  {6fd68c53-5508-457d-b0c5-794ebe3f87d7}, !- Handle
  garage zone,                            !- Name
  ,                                       !- Multiplier
  ,                                       !- Ceiling Height {m}
  ,                                       !- Volume {m3}
  ,                                       !- Floor Area {m2}
  ,                                       !- Zone Inside Convection Algorithm
  ,                                       !- Zone Outside Convection Algorithm
  ,                                       !- Zone Conditioning Equipment List Name
  {ac3cfdfd-e266-45ef-8656-e2557d1b8c38}, !- Zone Air Inlet Port List
  {d15c8f0f-67fa-44e0-80fc-ce7c5666f3bc}, !- Zone Air Exhaust Port List
  {0adc201b-3446-4637-9cdd-9b61b9fbfd39}, !- Zone Air Node Name
  ,                                       !- Zone Return Air Node Name
  ,                                       !- Primary Daylighting Control Name
  ,                                       !- Fraction of Zone Controlled by Primary Daylighting Control
  ,                                       !- Secondary Daylighting Control Name
  ,                                       !- Fraction of Zone Controlled by Secondary Daylighting Control
  ,                                       !- Illuminance Map Name
  ,                                       !- Group Rendering Name
  ,                                       !- Thermostat Name
  No;                                     !- Use Ideal Air Loads

OS:Node,
  {dc4071e8-dd95-497f-b182-8ec20236189b}, !- Handle
  Node 2,                                 !- Name
  {0adc201b-3446-4637-9cdd-9b61b9fbfd39}, !- Inlet Port
  ;                                       !- Outlet Port

OS:Connection,
  {0adc201b-3446-4637-9cdd-9b61b9fbfd39}, !- Handle
  {648568a3-5038-446e-baaf-8ce71ab40280}, !- Name
  {6fd68c53-5508-457d-b0c5-794ebe3f87d7}, !- Source Object
  11,                                     !- Outlet Port
  {dc4071e8-dd95-497f-b182-8ec20236189b}, !- Target Object
  2;                                      !- Inlet Port

OS:PortList,
  {ac3cfdfd-e266-45ef-8656-e2557d1b8c38}, !- Handle
  {993ae52b-ab8a-4df8-bca8-fe73a540df47}, !- Name
  {6fd68c53-5508-457d-b0c5-794ebe3f87d7}; !- HVAC Component

OS:PortList,
  {d15c8f0f-67fa-44e0-80fc-ce7c5666f3bc}, !- Handle
  {a70ea332-8df7-49d2-95d6-938d9f764812}, !- Name
  {6fd68c53-5508-457d-b0c5-794ebe3f87d7}; !- HVAC Component

OS:Sizing:Zone,
  {2f0c960d-7ede-4b02-bb1f-5e1df44e1c29}, !- Handle
  {6fd68c53-5508-457d-b0c5-794ebe3f87d7}, !- Zone or ZoneList Name
  SupplyAirTemperature,                   !- Zone Cooling Design Supply Air Temperature Input Method
  14,                                     !- Zone Cooling Design Supply Air Temperature {C}
  11.11,                                  !- Zone Cooling Design Supply Air Temperature Difference {deltaC}
  SupplyAirTemperature,                   !- Zone Heating Design Supply Air Temperature Input Method
  40,                                     !- Zone Heating Design Supply Air Temperature {C}
  11.11,                                  !- Zone Heating Design Supply Air Temperature Difference {deltaC}
  0.0085,                                 !- Zone Cooling Design Supply Air Humidity Ratio {kg-H2O/kg-air}
  0.008,                                  !- Zone Heating Design Supply Air Humidity Ratio {kg-H2O/kg-air}
  ,                                       !- Zone Heating Sizing Factor
  ,                                       !- Zone Cooling Sizing Factor
  DesignDay,                              !- Cooling Design Air Flow Method
  ,                                       !- Cooling Design Air Flow Rate {m3/s}
  ,                                       !- Cooling Minimum Air Flow per Zone Floor Area {m3/s-m2}
  ,                                       !- Cooling Minimum Air Flow {m3/s}
  ,                                       !- Cooling Minimum Air Flow Fraction
  DesignDay,                              !- Heating Design Air Flow Method
  ,                                       !- Heating Design Air Flow Rate {m3/s}
  ,                                       !- Heating Maximum Air Flow per Zone Floor Area {m3/s-m2}
  ,                                       !- Heating Maximum Air Flow {m3/s}
  ,                                       !- Heating Maximum Air Flow Fraction
  ,                                       !- Design Zone Air Distribution Effectiveness in Cooling Mode
  ,                                       !- Design Zone Air Distribution Effectiveness in Heating Mode
  No,                                     !- Account for Dedicated Outdoor Air System
  NeutralSupplyAir,                       !- Dedicated Outdoor Air System Control Strategy
  autosize,                               !- Dedicated Outdoor Air Low Setpoint Temperature for Design {C}
  autosize;                               !- Dedicated Outdoor Air High Setpoint Temperature for Design {C}

OS:ZoneHVAC:EquipmentList,
  {cb281c0f-c6cc-45e5-b93d-859250650413}, !- Handle
  Zone HVAC Equipment List 2,             !- Name
  {6fd68c53-5508-457d-b0c5-794ebe3f87d7}; !- Thermal Zone

OS:Space,
  {0323c4e8-01e7-4ece-ae8b-593b0d082221}, !- Handle
  garage space,                           !- Name
  {088fa519-2340-4eb6-ac65-01c5b23e2b24}, !- Space Type Name
  ,                                       !- Default Construction Set Name
  ,                                       !- Default Schedule Set Name
  -0,                                     !- Direction of Relative North {deg}
  0,                                      !- X Origin {m}
  0,                                      !- Y Origin {m}
  0,                                      !- Z Origin {m}
  ,                                       !- Building Story Name
  {6fd68c53-5508-457d-b0c5-794ebe3f87d7}, !- Thermal Zone Name
  ,                                       !- Part of Total Floor Area
  ,                                       !- Design Specification Outdoor Air Object Name
  {7a6d05b9-1153-4f92-9be9-6f68b2d4eee2}; !- Building Unit Name

OS:Surface,
  {ff0873ed-a5f9-410e-abfc-002ed07bfcb7}, !- Handle
  Surface 1,                              !- Name
  Floor,                                  !- Surface Type
  ,                                       !- Construction Name
  {0323c4e8-01e7-4ece-ae8b-593b0d082221}, !- Space Name
  Ground,                                 !- Outside Boundary Condition
  ,                                       !- Outside Boundary Condition Object
  NoSun,                                  !- Sun Exposure
  NoWind,                                 !- Wind Exposure
  ,                                       !- View Factor to Ground
  ,                                       !- Number of Vertices
  7.53507039083872, -3.048, 0,            !- X,Y,Z Vertex 1 {m}
  7.53507039083872, 3.048, 0,             !- X,Y,Z Vertex 2 {m}
  13.6310703908387, 3.048, 0,             !- X,Y,Z Vertex 3 {m}
  13.6310703908387, -3.048, 0;            !- X,Y,Z Vertex 4 {m}

OS:Surface,
  {018e8284-8556-4f95-b550-1f6077106660}, !- Handle
  Surface 2,                              !- Name
  Wall,                                   !- Surface Type
  ,                                       !- Construction Name
  {0323c4e8-01e7-4ece-ae8b-593b0d082221}, !- Space Name
  Surface,                                !- Outside Boundary Condition
  {d252ae52-f64e-464e-a71d-33bec6b9f41f}, !- Outside Boundary Condition Object
  NoSun,                                  !- Sun Exposure
  NoWind,                                 !- Wind Exposure
  ,                                       !- View Factor to Ground
  ,                                       !- Number of Vertices
  7.53507039083872, 3.048, 2.4384,        !- X,Y,Z Vertex 1 {m}
  7.53507039083872, 3.048, 0,             !- X,Y,Z Vertex 2 {m}
  7.53507039083872, 0, 0,                 !- X,Y,Z Vertex 3 {m}
  7.53507039083872, 0, 2.4384;            !- X,Y,Z Vertex 4 {m}

OS:Surface,
  {0ad5caa4-fa15-4a5f-907a-4c6f0ec9d552}, !- Handle
  Surface 3,                              !- Name
  Wall,                                   !- Surface Type
  ,                                       !- Construction Name
  {0323c4e8-01e7-4ece-ae8b-593b0d082221}, !- Space Name
  Surface,                                !- Outside Boundary Condition
  {4d9c536b-8fd6-429f-ab9d-bec6d754015e}, !- Outside Boundary Condition Object
  NoSun,                                  !- Sun Exposure
  NoWind,                                 !- Wind Exposure
  ,                                       !- View Factor to Ground
  ,                                       !- Number of Vertices
  13.6310703908387, 3.048, 2.4384,        !- X,Y,Z Vertex 1 {m}
  13.6310703908387, 3.048, 0,             !- X,Y,Z Vertex 2 {m}
  7.53507039083872, 3.048, 0,             !- X,Y,Z Vertex 3 {m}
  7.53507039083872, 3.048, 2.4384;        !- X,Y,Z Vertex 4 {m}

OS:Surface,
  {a14b4403-34ab-4f3e-9203-74db830df669}, !- Handle
  Surface 4,                              !- Name
  Wall,                                   !- Surface Type
  ,                                       !- Construction Name
  {0323c4e8-01e7-4ece-ae8b-593b0d082221}, !- Space Name
  Outdoors,                               !- Outside Boundary Condition
  ,                                       !- Outside Boundary Condition Object
  SunExposed,                             !- Sun Exposure
  WindExposed,                            !- Wind Exposure
  ,                                       !- View Factor to Ground
  ,                                       !- Number of Vertices
  13.6310703908387, -3.048, 2.4384,       !- X,Y,Z Vertex 1 {m}
  13.6310703908387, -3.048, 0,            !- X,Y,Z Vertex 2 {m}
  13.6310703908387, 3.048, 0,             !- X,Y,Z Vertex 3 {m}
  13.6310703908387, 3.048, 2.4384;        !- X,Y,Z Vertex 4 {m}

OS:Surface,
  {aaa8e370-ebfe-4945-bd89-ebab0c45c316}, !- Handle
  Surface 5,                              !- Name
  Wall,                                   !- Surface Type
  ,                                       !- Construction Name
  {0323c4e8-01e7-4ece-ae8b-593b0d082221}, !- Space Name
  Outdoors,                               !- Outside Boundary Condition
  ,                                       !- Outside Boundary Condition Object
  SunExposed,                             !- Sun Exposure
  WindExposed,                            !- Wind Exposure
  ,                                       !- View Factor to Ground
  ,                                       !- Number of Vertices
  7.53507039083872, -3.048, 2.4384,       !- X,Y,Z Vertex 1 {m}
  7.53507039083872, -3.048, 0,            !- X,Y,Z Vertex 2 {m}
  13.6310703908387, -3.048, 0,            !- X,Y,Z Vertex 3 {m}
  13.6310703908387, -3.048, 2.4384;       !- X,Y,Z Vertex 4 {m}

OS:Surface,
  {e078df98-c82b-4181-86de-51ea55164181}, !- Handle
  Surface 6,                              !- Name
  RoofCeiling,                            !- Surface Type
  ,                                       !- Construction Name
  {0323c4e8-01e7-4ece-ae8b-593b0d082221}, !- Space Name
  Surface,                                !- Outside Boundary Condition
  {f3c77f3c-4db4-4f6f-82a4-78fe19eb4f38}, !- Outside Boundary Condition Object
  NoSun,                                  !- Sun Exposure
  NoWind,                                 !- Wind Exposure
  ,                                       !- View Factor to Ground
  ,                                       !- Number of Vertices
  13.6310703908387, -3.048, 2.4384,       !- X,Y,Z Vertex 1 {m}
  13.6310703908387, 3.048, 2.4384,        !- X,Y,Z Vertex 2 {m}
  7.53507039083872, 3.048, 2.4384,        !- X,Y,Z Vertex 3 {m}
  7.53507039083872, 0, 2.4384,            !- X,Y,Z Vertex 4 {m}
  7.53507039083872, -3.048, 2.4384;       !- X,Y,Z Vertex 5 {m}

OS:SpaceType,
  {088fa519-2340-4eb6-ac65-01c5b23e2b24}, !- Handle
  Space Type 1,                           !- Name
  ,                                       !- Default Construction Set Name
  ,                                       !- Default Schedule Set Name
  ,                                       !- Group Rendering Name
  ,                                       !- Design Specification Outdoor Air Object Name
  ,                                       !- Standards Building Type
  garage;                                 !- Standards Space Type

OS:Space,
  {cf10702f-8559-4592-959c-14b1d436d4f6}, !- Handle
  living space,                           !- Name
  {504507dd-bf75-46de-bd20-d919ff6ae55b}, !- Space Type Name
  ,                                       !- Default Construction Set Name
  ,                                       !- Default Schedule Set Name
  -0,                                     !- Direction of Relative North {deg}
  0,                                      !- X Origin {m}
  0,                                      !- Y Origin {m}
  0,                                      !- Z Origin {m}
  ,                                       !- Building Story Name
  {4005dc5b-0d1a-4104-a3e5-948aad0cef12}, !- Thermal Zone Name
  ,                                       !- Part of Total Floor Area
  ,                                       !- Design Specification Outdoor Air Object Name
  {7a6d05b9-1153-4f92-9be9-6f68b2d4eee2}; !- Building Unit Name

OS:Surface,
  {fe187962-b0c6-4e2b-882f-6c9973a01196}, !- Handle
  Surface 7,                              !- Name
  Floor,                                  !- Surface Type
  ,                                       !- Construction Name
  {cf10702f-8559-4592-959c-14b1d436d4f6}, !- Space Name
  Ground,                                 !- Outside Boundary Condition
  ,                                       !- Outside Boundary Condition Object
  NoSun,                                  !- Sun Exposure
  NoWind,                                 !- Wind Exposure
  ,                                       !- View Factor to Ground
  ,                                       !- Number of Vertices
  0, 0, 0,                                !- X,Y,Z Vertex 1 {m}
  0, 6.81553519541936, 0,                 !- X,Y,Z Vertex 2 {m}
  13.6310703908387, 6.81553519541936, 0,  !- X,Y,Z Vertex 3 {m}
  13.6310703908387, 3.048, 0,             !- X,Y,Z Vertex 4 {m}
  7.53507039083872, 3.048, 0,             !- X,Y,Z Vertex 5 {m}
  7.53507039083872, 0, 0;                 !- X,Y,Z Vertex 6 {m}

OS:Surface,
  {e1dae9f6-a2ba-4181-8b3f-1027a7a9d994}, !- Handle
  Surface 8,                              !- Name
  Wall,                                   !- Surface Type
  ,                                       !- Construction Name
  {cf10702f-8559-4592-959c-14b1d436d4f6}, !- Space Name
  Outdoors,                               !- Outside Boundary Condition
  ,                                       !- Outside Boundary Condition Object
  SunExposed,                             !- Sun Exposure
  WindExposed,                            !- Wind Exposure
  ,                                       !- View Factor to Ground
  ,                                       !- Number of Vertices
  0, 6.81553519541936, 2.4384,            !- X,Y,Z Vertex 1 {m}
  0, 6.81553519541936, 0,                 !- X,Y,Z Vertex 2 {m}
  0, 0, 0,                                !- X,Y,Z Vertex 3 {m}
  0, 0, 2.4384;                           !- X,Y,Z Vertex 4 {m}

OS:Surface,
  {27b8a49e-b789-4c04-b885-501936a90cb9}, !- Handle
  Surface 9,                              !- Name
  Wall,                                   !- Surface Type
  ,                                       !- Construction Name
  {cf10702f-8559-4592-959c-14b1d436d4f6}, !- Space Name
  Outdoors,                               !- Outside Boundary Condition
  ,                                       !- Outside Boundary Condition Object
  SunExposed,                             !- Sun Exposure
  WindExposed,                            !- Wind Exposure
  ,                                       !- View Factor to Ground
  ,                                       !- Number of Vertices
  13.6310703908387, 6.81553519541936, 2.4384, !- X,Y,Z Vertex 1 {m}
  13.6310703908387, 6.81553519541936, 0,  !- X,Y,Z Vertex 2 {m}
  0, 6.81553519541936, 0,                 !- X,Y,Z Vertex 3 {m}
  0, 6.81553519541936, 2.4384;            !- X,Y,Z Vertex 4 {m}

OS:Surface,
  {fb030103-b814-4b1f-b373-2b645b28deeb}, !- Handle
  Surface 10,                             !- Name
  Wall,                                   !- Surface Type
  ,                                       !- Construction Name
  {cf10702f-8559-4592-959c-14b1d436d4f6}, !- Space Name
  Outdoors,                               !- Outside Boundary Condition
  ,                                       !- Outside Boundary Condition Object
  SunExposed,                             !- Sun Exposure
  WindExposed,                            !- Wind Exposure
  ,                                       !- View Factor to Ground
  ,                                       !- Number of Vertices
  13.6310703908387, 3.048, 2.4384,        !- X,Y,Z Vertex 1 {m}
  13.6310703908387, 3.048, 0,             !- X,Y,Z Vertex 2 {m}
  13.6310703908387, 6.81553519541936, 0,  !- X,Y,Z Vertex 3 {m}
  13.6310703908387, 6.81553519541936, 2.4384; !- X,Y,Z Vertex 4 {m}

OS:Surface,
  {4d9c536b-8fd6-429f-ab9d-bec6d754015e}, !- Handle
  Surface 11,                             !- Name
  Wall,                                   !- Surface Type
  ,                                       !- Construction Name
  {cf10702f-8559-4592-959c-14b1d436d4f6}, !- Space Name
  Surface,                                !- Outside Boundary Condition
  {0ad5caa4-fa15-4a5f-907a-4c6f0ec9d552}, !- Outside Boundary Condition Object
  NoSun,                                  !- Sun Exposure
  NoWind,                                 !- Wind Exposure
  ,                                       !- View Factor to Ground
  ,                                       !- Number of Vertices
  7.53507039083872, 3.048, 2.4384,        !- X,Y,Z Vertex 1 {m}
  7.53507039083872, 3.048, 0,             !- X,Y,Z Vertex 2 {m}
  13.6310703908387, 3.048, 0,             !- X,Y,Z Vertex 3 {m}
  13.6310703908387, 3.048, 2.4384;        !- X,Y,Z Vertex 4 {m}

OS:Surface,
  {d252ae52-f64e-464e-a71d-33bec6b9f41f}, !- Handle
  Surface 12,                             !- Name
  Wall,                                   !- Surface Type
  ,                                       !- Construction Name
  {cf10702f-8559-4592-959c-14b1d436d4f6}, !- Space Name
  Surface,                                !- Outside Boundary Condition
  {018e8284-8556-4f95-b550-1f6077106660}, !- Outside Boundary Condition Object
  NoSun,                                  !- Sun Exposure
  NoWind,                                 !- Wind Exposure
  ,                                       !- View Factor to Ground
  ,                                       !- Number of Vertices
  7.53507039083872, 0, 2.4384,            !- X,Y,Z Vertex 1 {m}
  7.53507039083872, 0, 0,                 !- X,Y,Z Vertex 2 {m}
  7.53507039083872, 3.048, 0,             !- X,Y,Z Vertex 3 {m}
  7.53507039083872, 3.048, 2.4384;        !- X,Y,Z Vertex 4 {m}

OS:Surface,
  {841c3047-ea00-4a5d-9196-f805a257c706}, !- Handle
  Surface 13,                             !- Name
  Wall,                                   !- Surface Type
  ,                                       !- Construction Name
  {cf10702f-8559-4592-959c-14b1d436d4f6}, !- Space Name
  Outdoors,                               !- Outside Boundary Condition
  ,                                       !- Outside Boundary Condition Object
  SunExposed,                             !- Sun Exposure
  WindExposed,                            !- Wind Exposure
  ,                                       !- View Factor to Ground
  ,                                       !- Number of Vertices
  7.53507039083872, 0, 0,                 !- X,Y,Z Vertex 1 {m}
  7.53507039083872, 0, 2.4384,            !- X,Y,Z Vertex 2 {m}
  1.04865714285714, 0, 2.4384,            !- X,Y,Z Vertex 3 {m}
  1.04865714285714, 0, 0;                 !- X,Y,Z Vertex 4 {m}

OS:Surface,
  {34e69110-3cff-40a0-b894-1d367990b309}, !- Handle
  Surface 14,                             !- Name
  RoofCeiling,                            !- Surface Type
  ,                                       !- Construction Name
  {cf10702f-8559-4592-959c-14b1d436d4f6}, !- Space Name
  Surface,                                !- Outside Boundary Condition
  {01ff554b-1354-4dd1-ad90-b8e670f322d0}, !- Outside Boundary Condition Object
  NoSun,                                  !- Sun Exposure
  NoWind,                                 !- Wind Exposure
  ,                                       !- View Factor to Ground
  ,                                       !- Number of Vertices
  7.53507039083872, 0, 2.4384,            !- X,Y,Z Vertex 1 {m}
  7.53507039083872, 3.048, 2.4384,        !- X,Y,Z Vertex 2 {m}
  13.6310703908387, 3.048, 2.4384,        !- X,Y,Z Vertex 3 {m}
  13.6310703908387, 6.81553519541936, 2.4384, !- X,Y,Z Vertex 4 {m}