!- NOTE: Auto-generated from /test/osw_files/SFD_2000sqft_2story_SL_GRG_UA_Windows_Doors.osw

OS:Version,
  {ed0edcc0-0745-4eb9-ae11-5633af39d36e}, !- Handle
  2.3.1;                                  !- Version Identifier

OS:Building,
  {bf305633-c5a1-4881-9edf-ca5e1a8e1274}, !- Handle
  Building,                               !- Name
  ,                                       !- Building Sector Type
  ,                                       !- North Axis {deg}
  ,                                       !- Nominal Floor to Floor Height {m}
  ,                                       !- Space Type Name
  ,                                       !- Default Construction Set Name
  ,                                       !- Default Schedule Set Name
  2,                                      !- Standards Number of Stories
  2,                                      !- Standards Number of Above Ground Stories
  singlefamilydetached,                   !- Standards Building Type
  1;                                      !- Standards Number of Living Units

OS:YearDescription,
  {513d8dda-86cb-442a-b01c-1f7f0e0ac70e}; !- Handle

OS:SimulationControl,
  {2c487a4c-bac9-4ac5-b669-1e49d9da7c2b}, !- Handle
  ,                                       !- Do Zone Sizing Calculation
  ,                                       !- Do System Sizing Calculation
  ,                                       !- Do Plant Sizing Calculation
  No,                                     !- Run Simulation for Sizing Periods
  ;                                       !- Run Simulation for Weather File Run Periods

OS:Timestep,
  {4ebc9f1e-4707-402e-9844-67eb1ffbd522}, !- Handle
  6;                                      !- Number of Timesteps per Hour

OS:RunPeriod,
  {28df894d-6af9-4fb8-8f56-df1753344aa3}, !- Handle
  Run Period,                             !- Name
  1,                                      !- Begin Month
  1,                                      !- Begin Day of Month
  12,                                     !- End Month
  31,                                     !- End Day of Month
  ,                                       !- Use Weather File Holidays and Special Days
  ,                                       !- Use Weather File Daylight Saving Period
  ,                                       !- Apply Weekend Holiday Rule
  ,                                       !- Use Weather File Rain Indicators
  ,                                       !- Use Weather File Snow Indicators
  ;                                       !- Number of Times Runperiod to be Repeated

OS:Sizing:Parameters,
  {dde5af6f-7923-4600-a28a-7556673a0266}, !- Handle
  1.0,                                    !- Heating Sizing Factor
  1.0;                                    !- Cooling Sizing Factor

OS:ShadowCalculation,
  {ca758bea-4416-4626-9bba-3d8795c79bd6}, !- Handle
  20,                                     !- Calculation Frequency
  200;                                    !- Maximum Figures in Shadow Overlap Calculations

OS:SurfaceConvectionAlgorithm:Inside,
  {aaabfc36-718a-4ab0-b622-f186ebb45230}, !- Handle
  TARP;                                   !- Algorithm

OS:SurfaceConvectionAlgorithm:Outside,
  {9a0a9f6f-4bbd-4b12-a121-9492a1fcd7d6}, !- Handle
  DOE-2;                                  !- Algorithm

OS:HeatBalanceAlgorithm,
  {9d93e563-e1e0-46d7-9e39-d1c8aceb7212}, !- Handle
  ConductionTransferFunction,             !- Algorithm
  200;                                    !- Surface Temperature Upper Limit {C}

OS:ZoneCapacitanceMultiplier:ResearchSpecial,
  {6bfced16-b16f-47f6-8223-f7e267d75d19}, !- Handle
  ,                                       !- Temperature Capacity Multiplier
  15,                                     !- Humidity Capacity Multiplier
  ;                                       !- Carbon Dioxide Capacity Multiplier

OS:ThermalZone,
  {e15583a7-af12-4edc-8d8e-6b5aa8f167c7}, !- Handle
  living zone,                            !- Name
  ,                                       !- Multiplier
  ,                                       !- Ceiling Height {m}
  ,                                       !- Volume {m3}
  ,                                       !- Floor Area {m2}
  ,                                       !- Zone Inside Convection Algorithm
  ,                                       !- Zone Outside Convection Algorithm
  ,                                       !- Zone Conditioning Equipment List Name
  {a72c1490-aa41-4141-8d9d-0bea2513518f}, !- Zone Air Inlet Port List
  {25f708ce-5075-4137-8c6a-3ae2c3adc3b9}, !- Zone Air Exhaust Port List
  {03e31fd8-f00d-4629-95f1-fc6920c69026}, !- Zone Air Node Name
  ,                                       !- Zone Return Air Node Name
  ,                                       !- Primary Daylighting Control Name
  ,                                       !- Fraction of Zone Controlled by Primary Daylighting Control
  ,                                       !- Secondary Daylighting Control Name
  ,                                       !- Fraction of Zone Controlled by Secondary Daylighting Control
  ,                                       !- Illuminance Map Name
  ,                                       !- Group Rendering Name
  ,                                       !- Thermostat Name
  No;                                     !- Use Ideal Air Loads

OS:Node,
  {29d5d20f-dff6-49e1-8aff-4af9a9956f75}, !- Handle
  Node 1,                                 !- Name
  {03e31fd8-f00d-4629-95f1-fc6920c69026}, !- Inlet Port
  ;                                       !- Outlet Port

OS:Connection,
  {03e31fd8-f00d-4629-95f1-fc6920c69026}, !- Handle
  {6c0eff79-4126-456b-a743-c8b0eff934ca}, !- Name
  {e15583a7-af12-4edc-8d8e-6b5aa8f167c7}, !- Source Object
  11,                                     !- Outlet Port
  {29d5d20f-dff6-49e1-8aff-4af9a9956f75}, !- Target Object
  2;                                      !- Inlet Port

OS:PortList,
  {a72c1490-aa41-4141-8d9d-0bea2513518f}, !- Handle
  {02c90571-64fb-47c7-ac92-b4e824b2b37a}, !- Name
  {e15583a7-af12-4edc-8d8e-6b5aa8f167c7}; !- HVAC Component

OS:PortList,
  {25f708ce-5075-4137-8c6a-3ae2c3adc3b9}, !- Handle
  {c211971b-913a-4460-9c1c-08ef66b262d5}, !- Name
  {e15583a7-af12-4edc-8d8e-6b5aa8f167c7}; !- HVAC Component

OS:Sizing:Zone,
  {766be09a-b4b3-4cb9-9f10-f3ec9a63c75d}, !- Handle
  {e15583a7-af12-4edc-8d8e-6b5aa8f167c7}, !- Zone or ZoneList Name
  SupplyAirTemperature,                   !- Zone Cooling Design Supply Air Temperature Input Method
  14,                                     !- Zone Cooling Design Supply Air Temperature {C}
  11.11,                                  !- Zone Cooling Design Supply Air Temperature Difference {deltaC}
  SupplyAirTemperature,                   !- Zone Heating Design Supply Air Temperature Input Method
  40,                                     !- Zone Heating Design Supply Air Temperature {C}
  11.11,                                  !- Zone Heating Design Supply Air Temperature Difference {deltaC}
  0.0085,                                 !- Zone Cooling Design Supply Air Humidity Ratio {kg-H2O/kg-air}
  0.008,                                  !- Zone Heating Design Supply Air Humidity Ratio {kg-H2O/kg-air}
  ,                                       !- Zone Heating Sizing Factor
  ,                                       !- Zone Cooling Sizing Factor
  DesignDay,                              !- Cooling Design Air Flow Method
  ,                                       !- Cooling Design Air Flow Rate {m3/s}
  ,                                       !- Cooling Minimum Air Flow per Zone Floor Area {m3/s-m2}
  ,                                       !- Cooling Minimum Air Flow {m3/s}
  ,                                       !- Cooling Minimum Air Flow Fraction
  DesignDay,                              !- Heating Design Air Flow Method
  ,                                       !- Heating Design Air Flow Rate {m3/s}
  ,                                       !- Heating Maximum Air Flow per Zone Floor Area {m3/s-m2}
  ,                                       !- Heating Maximum Air Flow {m3/s}
  ,                                       !- Heating Maximum Air Flow Fraction
  ,                                       !- Design Zone Air Distribution Effectiveness in Cooling Mode
  ,                                       !- Design Zone Air Distribution Effectiveness in Heating Mode
  No,                                     !- Account for Dedicated Outdoor Air System
  NeutralSupplyAir,                       !- Dedicated Outdoor Air System Control Strategy
  autosize,                               !- Dedicated Outdoor Air Low Setpoint Temperature for Design {C}
  autosize;                               !- Dedicated Outdoor Air High Setpoint Temperature for Design {C}

OS:ZoneHVAC:EquipmentList,
  {30d0ae7a-4c9d-44fa-a69f-2e91be46c8f9}, !- Handle
  Zone HVAC Equipment List 1,             !- Name
  {e15583a7-af12-4edc-8d8e-6b5aa8f167c7}; !- Thermal Zone

OS:ThermalZone,
  {a6612a0f-33fb-4090-aaf1-c1cd456f7bf6}, !- Handle
  garage zone,                            !- Name
  ,                                       !- Multiplier
  ,                                       !- Ceiling Height {m}
  ,                                       !- Volume {m3}
  ,                                       !- Floor Area {m2}
  ,                                       !- Zone Inside Convection Algorithm
  ,                                       !- Zone Outside Convection Algorithm
  ,                                       !- Zone Conditioning Equipment List Name
  {78056d11-b936-4ec0-b912-93545f94ab78}, !- Zone Air Inlet Port List
  {9aa63456-59d8-40a0-a1ef-fcd1a085e5e9}, !- Zone Air Exhaust Port List
  {f55d5688-734d-4798-a81c-66f135023596}, !- Zone Air Node Name
  ,                                       !- Zone Return Air Node Name
  ,                                       !- Primary Daylighting Control Name
  ,                                       !- Fraction of Zone Controlled by Primary Daylighting Control
  ,                                       !- Secondary Daylighting Control Name
  ,                                       !- Fraction of Zone Controlled by Secondary Daylighting Control
  ,                                       !- Illuminance Map Name
  ,                                       !- Group Rendering Name
  ,                                       !- Thermostat Name
  No;                                     !- Use Ideal Air Loads

OS:Node,
  {ec7901ad-381a-490f-be17-c71928c0b39c}, !- Handle
  Node 2,                                 !- Name
  {f55d5688-734d-4798-a81c-66f135023596}, !- Inlet Port
  ;                                       !- Outlet Port

OS:Connection,
  {f55d5688-734d-4798-a81c-66f135023596}, !- Handle
  {d0e96ab8-7153-44a3-a3c9-93bf2c49eba1}, !- Name
  {a6612a0f-33fb-4090-aaf1-c1cd456f7bf6}, !- Source Object
  11,                                     !- Outlet Port
  {ec7901ad-381a-490f-be17-c71928c0b39c}, !- Target Object
  2;                                      !- Inlet Port

OS:PortList,
  {78056d11-b936-4ec0-b912-93545f94ab78}, !- Handle
  {1f6f472f-daf2-4e6c-8045-ad95d8d85d2c}, !- Name
  {a6612a0f-33fb-4090-aaf1-c1cd456f7bf6}; !- HVAC Component

OS:PortList,
  {9aa63456-59d8-40a0-a1ef-fcd1a085e5e9}, !- Handle
  {80f47636-55b3-4f85-84e4-7961b9bfb15c}, !- Name
  {a6612a0f-33fb-4090-aaf1-c1cd456f7bf6}; !- HVAC Component

OS:Sizing:Zone,
  {dfdc52cf-5dea-4831-88e2-5b9cbef100d4}, !- Handle
  {a6612a0f-33fb-4090-aaf1-c1cd456f7bf6}, !- Zone or ZoneList Name
  SupplyAirTemperature,                   !- Zone Cooling Design Supply Air Temperature Input Method
  14,                                     !- Zone Cooling Design Supply Air Temperature {C}
  11.11,                                  !- Zone Cooling Design Supply Air Temperature Difference {deltaC}
  SupplyAirTemperature,                   !- Zone Heating Design Supply Air Temperature Input Method
  40,                                     !- Zone Heating Design Supply Air Temperature {C}
  11.11,                                  !- Zone Heating Design Supply Air Temperature Difference {deltaC}
  0.0085,                                 !- Zone Cooling Design Supply Air Humidity Ratio {kg-H2O/kg-air}
  0.008,                                  !- Zone Heating Design Supply Air Humidity Ratio {kg-H2O/kg-air}
  ,                                       !- Zone Heating Sizing Factor
  ,                                       !- Zone Cooling Sizing Factor
  DesignDay,                              !- Cooling Design Air Flow Method
  ,                                       !- Cooling Design Air Flow Rate {m3/s}
  ,                                       !- Cooling Minimum Air Flow per Zone Floor Area {m3/s-m2}
  ,                                       !- Cooling Minimum Air Flow {m3/s}
  ,                                       !- Cooling Minimum Air Flow Fraction
  DesignDay,                              !- Heating Design Air Flow Method
  ,                                       !- Heating Design Air Flow Rate {m3/s}
  ,                                       !- Heating Maximum Air Flow per Zone Floor Area {m3/s-m2}
  ,                                       !- Heating Maximum Air Flow {m3/s}
  ,                                       !- Heating Maximum Air Flow Fraction
  ,                                       !- Design Zone Air Distribution Effectiveness in Cooling Mode
  ,                                       !- Design Zone Air Distribution Effectiveness in Heating Mode
  No,                                     !- Account for Dedicated Outdoor Air System
  NeutralSupplyAir,                       !- Dedicated Outdoor Air System Control Strategy
  autosize,                               !- Dedicated Outdoor Air Low Setpoint Temperature for Design {C}
  autosize;                               !- Dedicated Outdoor Air High Setpoint Temperature for Design {C}

OS:ZoneHVAC:EquipmentList,
  {f5b2db00-000d-49e3-856f-808c884326c7}, !- Handle
  Zone HVAC Equipment List 2,             !- Name
  {a6612a0f-33fb-4090-aaf1-c1cd456f7bf6}; !- Thermal Zone

OS:Space,
  {21a2f17d-bc7d-4c35-9f5a-baa3c6ed295e}, !- Handle
  garage space,                           !- Name
  ,                                       !- Space Type Name
  ,                                       !- Default Construction Set Name
  ,                                       !- Default Schedule Set Name
  -0,                                     !- Direction of Relative North {deg}
  0,                                      !- X Origin {m}
  0,                                      !- Y Origin {m}
  0,                                      !- Z Origin {m}
  ,                                       !- Building Story Name
  {a6612a0f-33fb-4090-aaf1-c1cd456f7bf6}, !- Thermal Zone Name
  ,                                       !- Part of Total Floor Area
  ,                                       !- Design Specification Outdoor Air Object Name
  {e7f1c820-f0ed-494f-82e9-0666b4cc989f}; !- Building Unit Name

OS:Surface,
  {6b14164b-9df8-49af-b3a0-72b3bc71d63d}, !- Handle
  Surface 1,                              !- Name
  Floor,                                  !- Surface Type
  ,                                       !- Construction Name
  {21a2f17d-bc7d-4c35-9f5a-baa3c6ed295e}, !- Space Name
  Ground,                                 !- Outside Boundary Condition
  ,                                       !- Outside Boundary Condition Object
  NoSun,                                  !- Sun Exposure
  NoWind,                                 !- Wind Exposure
  ,                                       !- View Factor to Ground
  ,                                       !- Number of Vertices
  7.53507039083872, -3.048, 0,            !- X,Y,Z Vertex 1 {m}
  7.53507039083872, 3.048, 0,             !- X,Y,Z Vertex 2 {m}
  13.6310703908387, 3.048, 0,             !- X,Y,Z Vertex 3 {m}
  13.6310703908387, -3.048, 0;            !- X,Y,Z Vertex 4 {m}

OS:Surface,
  {07f4d04d-8ae9-4e81-8cf9-382361148d8e}, !- Handle
  Surface 2,                              !- Name
  Wall,                                   !- Surface Type
  ,                                       !- Construction Name
  {21a2f17d-bc7d-4c35-9f5a-baa3c6ed295e}, !- Space Name
  Surface,                                !- Outside Boundary Condition
  {c8b2e30f-c265-4f3e-8786-6b64dfccd7d3}, !- Outside Boundary Condition Object
  NoSun,                                  !- Sun Exposure
  NoWind,                                 !- Wind Exposure
  ,                                       !- View Factor to Ground
  ,                                       !- Number of Vertices
  7.53507039083872, 3.048, 2.4384,        !- X,Y,Z Vertex 1 {m}
  7.53507039083872, 3.048, 0,             !- X,Y,Z Vertex 2 {m}
  7.53507039083872, 0, 0,                 !- X,Y,Z Vertex 3 {m}
  7.53507039083872, 0, 2.4384;            !- X,Y,Z Vertex 4 {m}

OS:Surface,
  {133411c2-8952-49c7-b1d3-2d756a5a0de3}, !- Handle
  Surface 3,                              !- Name
  Wall,                                   !- Surface Type
  ,                                       !- Construction Name
  {21a2f17d-bc7d-4c35-9f5a-baa3c6ed295e}, !- Space Name
  Surface,                                !- Outside Boundary Condition
  {3c24253e-cec8-4b76-9125-9a001208a8f0}, !- Outside Boundary Condition Object
  NoSun,                                  !- Sun Exposure
  NoWind,                                 !- Wind Exposure
  ,                                       !- View Factor to Ground
  ,                                       !- Number of Vertices
  13.6310703908387, 3.048, 2.4384,        !- X,Y,Z Vertex 1 {m}
  13.6310703908387, 3.048, 0,             !- X,Y,Z Vertex 2 {m}
  7.53507039083872, 3.048, 0,             !- X,Y,Z Vertex 3 {m}
  7.53507039083872, 3.048, 2.4384;        !- X,Y,Z Vertex 4 {m}

OS:Surface,
  {7ee51915-1d00-44fb-a892-8933ec15f5ee}, !- Handle
  Surface 4,                              !- Name
  Wall,                                   !- Surface Type
  ,                                       !- Construction Name
  {21a2f17d-bc7d-4c35-9f5a-baa3c6ed295e}, !- Space Name
  Outdoors,                               !- Outside Boundary Condition
  ,                                       !- Outside Boundary Condition Object
  SunExposed,                             !- Sun Exposure
  WindExposed,                            !- Wind Exposure
  ,                                       !- View Factor to Ground
  ,                                       !- Number of Vertices
  13.6310703908387, -3.048, 2.4384,       !- X,Y,Z Vertex 1 {m}
  13.6310703908387, -3.048, 0,            !- X,Y,Z Vertex 2 {m}
  13.6310703908387, 3.048, 0,             !- X,Y,Z Vertex 3 {m}
  13.6310703908387, 3.048, 2.4384;        !- X,Y,Z Vertex 4 {m}

OS:Surface,
  {1dafb1a8-2966-4fe1-82cb-cdd68719748f}, !- Handle
  Surface 5,                              !- Name
  Wall,                                   !- Surface Type
  ,                                       !- Construction Name
  {21a2f17d-bc7d-4c35-9f5a-baa3c6ed295e}, !- Space Name
  Outdoors,                               !- Outside Boundary Condition
  ,                                       !- Outside Boundary Condition Object
  SunExposed,                             !- Sun Exposure
  WindExposed,                            !- Wind Exposure
  ,                                       !- View Factor to Ground
  ,                                       !- Number of Vertices
  7.53507039083872, -3.048, 2.4384,       !- X,Y,Z Vertex 1 {m}
  7.53507039083872, -3.048, 0,            !- X,Y,Z Vertex 2 {m}
  13.6310703908387, -3.048, 0,            !- X,Y,Z Vertex 3 {m}
  13.6310703908387, -3.048, 2.4384;       !- X,Y,Z Vertex 4 {m}

OS:Surface,
  {6e1dd78d-4439-4366-b741-62b03d3af431}, !- Handle
  Surface 6,                              !- Name
  RoofCeiling,                            !- Surface Type
  ,                                       !- Construction Name
  {21a2f17d-bc7d-4c35-9f5a-baa3c6ed295e}, !- Space Name
  Surface,                                !- Outside Boundary Condition
  {14d1e6f0-c162-4808-a610-db2f2711cb73}, !- Outside Boundary Condition Object
  NoSun,                                  !- Sun Exposure
  NoWind,                                 !- Wind Exposure
  ,                                       !- View Factor to Ground
  ,                                       !- Number of Vertices
  13.6310703908387, -3.048, 2.4384,       !- X,Y,Z Vertex 1 {m}
  13.6310703908387, 3.048, 2.4384,        !- X,Y,Z Vertex 2 {m}
  7.53507039083872, 3.048, 2.4384,        !- X,Y,Z Vertex 3 {m}
  7.53507039083872, 0, 2.4384,            !- X,Y,Z Vertex 4 {m}
  7.53507039083872, -3.048, 2.4384;       !- X,Y,Z Vertex 5 {m}

OS:Space,
  {e3e1bb8d-1d74-4579-9683-cac2d9aa613a}, !- Handle
  living space,                           !- Name
  ,                                       !- Space Type Name
  ,                                       !- Default Construction Set Name
  ,                                       !- Default Schedule Set Name
  -0,                                     !- Direction of Relative North {deg}
  0,                                      !- X Origin {m}
  0,                                      !- Y Origin {m}
  0,                                      !- Z Origin {m}
  ,                                       !- Building Story Name
  {e15583a7-af12-4edc-8d8e-6b5aa8f167c7}, !- Thermal Zone Name
  ,                                       !- Part of Total Floor Area
  ,                                       !- Design Specification Outdoor Air Object Name
  {e7f1c820-f0ed-494f-82e9-0666b4cc989f}; !- Building Unit Name

OS:Surface,
  {db499217-fb4b-43d3-b768-1908f685861a}, !- Handle
  Surface 7,                              !- Name
  Floor,                                  !- Surface Type
  ,                                       !- Construction Name
  {e3e1bb8d-1d74-4579-9683-cac2d9aa613a}, !- Space Name
  Ground,                                 !- Outside Boundary Condition
  ,                                       !- Outside Boundary Condition Object
  NoSun,                                  !- Sun Exposure
  NoWind,                                 !- Wind Exposure
  ,                                       !- View Factor to Ground
  ,                                       !- Number of Vertices
  0, 0, 0,                                !- X,Y,Z Vertex 1 {m}
  0, 6.81553519541936, 0,                 !- X,Y,Z Vertex 2 {m}
  13.6310703908387, 6.81553519541936, 0,  !- X,Y,Z Vertex 3 {m}
  13.6310703908387, 3.048, 0,             !- X,Y,Z Vertex 4 {m}
  7.53507039083872, 3.048, 0,             !- X,Y,Z Vertex 5 {m}
  7.53507039083872, 0, 0;                 !- X,Y,Z Vertex 6 {m}

OS:Surface,
  {59ac24b5-78e7-431a-aefe-560a2db0d588}, !- Handle
  Surface 8,                              !- Name
  Wall,                                   !- Surface Type
  ,                                       !- Construction Name
  {e3e1bb8d-1d74-4579-9683-cac2d9aa613a}, !- Space Name
  Outdoors,                               !- Outside Boundary Condition
  ,                                       !- Outside Boundary Condition Object
  SunExposed,                             !- Sun Exposure
  WindExposed,                            !- Wind Exposure
  ,                                       !- View Factor to Ground
  ,                                       !- Number of Vertices
  0, 6.81553519541936, 2.4384,            !- X,Y,Z Vertex 1 {m}
  0, 6.81553519541936, 0,                 !- X,Y,Z Vertex 2 {m}
  0, 0, 0,                                !- X,Y,Z Vertex 3 {m}
  0, 0, 2.4384;                           !- X,Y,Z Vertex 4 {m}

OS:Surface,
  {30f81389-5bc7-4056-b5d1-3212d99964ff}, !- Handle
  Surface 9,                              !- Name
  Wall,                                   !- Surface Type
  ,                                       !- Construction Name
  {e3e1bb8d-1d74-4579-9683-cac2d9aa613a}, !- Space Name
  Outdoors,                               !- Outside Boundary Condition
  ,                                       !- Outside Boundary Condition Object
  SunExposed,                             !- Sun Exposure
  WindExposed,                            !- Wind Exposure
  ,                                       !- View Factor to Ground
  ,                                       !- Number of Vertices
  13.6310703908387, 6.81553519541936, 2.4384, !- X,Y,Z Vertex 1 {m}
  13.6310703908387, 6.81553519541936, 0,  !- X,Y,Z Vertex 2 {m}
  0, 6.81553519541936, 0,                 !- X,Y,Z Vertex 3 {m}
  0, 6.81553519541936, 2.4384;            !- X,Y,Z Vertex 4 {m}

OS:Surface,
  {0c6e3582-2f0b-431b-8059-d32b113d3c98}, !- Handle
  Surface 10,                             !- Name
  Wall,                                   !- Surface Type
  ,                                       !- Construction Name
  {e3e1bb8d-1d74-4579-9683-cac2d9aa613a}, !- Space Name
  Outdoors,                               !- Outside Boundary Condition
  ,                                       !- Outside Boundary Condition Object
  SunExposed,                             !- Sun Exposure
  WindExposed,                            !- Wind Exposure
  ,                                       !- View Factor to Ground
  ,                                       !- Number of Vertices
  13.6310703908387, 3.048, 2.4384,        !- X,Y,Z Vertex 1 {m}
  13.6310703908387, 3.048, 0,             !- X,Y,Z Vertex 2 {m}
  13.6310703908387, 6.81553519541936, 0,  !- X,Y,Z Vertex 3 {m}
  13.6310703908387, 6.81553519541936, 2.4384; !- X,Y,Z Vertex 4 {m}

OS:Surface,
  {3c24253e-cec8-4b76-9125-9a001208a8f0}, !- Handle
  Surface 11,                             !- Name
  Wall,                                   !- Surface Type
  ,                                       !- Construction Name
  {e3e1bb8d-1d74-4579-9683-cac2d9aa613a}, !- Space Name
  Surface,                                !- Outside Boundary Condition
  {133411c2-8952-49c7-b1d3-2d756a5a0de3}, !- Outside Boundary Condition Object
  NoSun,                                  !- Sun Exposure
  NoWind,                                 !- Wind Exposure
  ,                                       !- View Factor to Ground
  ,                                       !- Number of Vertices
  7.53507039083872, 3.048, 2.4384,        !- X,Y,Z Vertex 1 {m}
  7.53507039083872, 3.048, 0,             !- X,Y,Z Vertex 2 {m}
  13.6310703908387, 3.048, 0,             !- X,Y,Z Vertex 3 {m}
  13.6310703908387, 3.048, 2.4384;        !- X,Y,Z Vertex 4 {m}

OS:Surface,
  {c8b2e30f-c265-4f3e-8786-6b64dfccd7d3}, !- Handle
  Surface 12,                             !- Name
  Wall,                                   !- Surface Type
  ,                                       !- Construction Name
  {e3e1bb8d-1d74-4579-9683-cac2d9aa613a}, !- Space Name
  Surface,                                !- Outside Boundary Condition
  {07f4d04d-8ae9-4e81-8cf9-382361148d8e}, !- Outside Boundary Condition Object
  NoSun,                                  !- Sun Exposure
  NoWind,                                 !- Wind Exposure
  ,                                       !- View Factor to Ground
  ,                                       !- Number of Vertices
  7.53507039083872, 0, 2.4384,            !- X,Y,Z Vertex 1 {m}
  7.53507039083872, 0, 0,                 !- X,Y,Z Vertex 2 {m}
  7.53507039083872, 3.048, 0,             !- X,Y,Z Vertex 3 {m}
  7.53507039083872, 3.048, 2.4384;        !- X,Y,Z Vertex 4 {m}

OS:Surface,
  {a8b7fe83-68c6-42f6-a840-44837c89b241}, !- Handle
  Surface 13,                             !- Name
  Wall,                                   !- Surface Type
  ,                                       !- Construction Name
  {e3e1bb8d-1d74-4579-9683-cac2d9aa613a}, !- Space Name
  Outdoors,                               !- Outside Boundary Condition
  ,                                       !- Outside Boundary Condition Object
  SunExposed,                             !- Sun Exposure
  WindExposed,                            !- Wind Exposure
  ,                                       !- View Factor to Ground
  ,                                       !- Number of Vertices
  7.53507039083872, 0, 0,                 !- X,Y,Z Vertex 1 {m}
  7.53507039083872, 0, 2.4384,            !- X,Y,Z Vertex 2 {m}
  1.04865714285714, 0, 2.4384,            !- X,Y,Z Vertex 3 {m}
  1.04865714285714, 0, 0;                 !- X,Y,Z Vertex 4 {m}

OS:Surface,
  {20ba4b21-d33b-4c34-a6d9-cffb6c4f0d50}, !- Handle
  Surface 14,                             !- Name
  RoofCeiling,                            !- Surface Type
  ,                                       !- Construction Name
  {e3e1bb8d-1d74-4579-9683-cac2d9aa613a}, !- Space Name
  Surface,                                !- Outside Boundary Condition
  {08b6feb7-e69b-4c65-9f2e-7cd1a238253a}, !- Outside Boundary Condition Object
  NoSun,                                  !- Sun Exposure
  NoWind,                                 !- Wind Exposure
  ,                                       !- View Factor to Ground
  ,                                       !- Number of Vertices
  7.53507039083872, 0, 2.4384,            !- X,Y,Z Vertex 1 {m}
  7.53507039083872, 3.048, 2.4384,        !- X,Y,Z Vertex 2 {m}
  13.6310703908387, 3.048, 2.4384,        !- X,Y,Z Vertex 3 {m}
  13.6310703908387, 6.81553519541936, 2.4384, !- X,Y,Z Vertex 4 {m}
  0, 6.81553519541936, 2.4384,            !- X,Y,Z Vertex 5 {m}
  0, 0, 2.4384;                           !- X,Y,Z Vertex 6 {m}

OS:Space,
  {5c447203-9adf-43c5-bafd-2a5adbba3533}, !- Handle
  living space|story 2,                   !- Name
  ,                                       !- Space Type Name
  ,                                       !- Default Construction Set Name
  ,                                       !- Default Schedule Set Name
  -0,                                     !- Direction of Relative North {deg}