!- NOTE: Auto-generated from /test/osw_files/MF_8units_1story_SL_Inset_Windows.osw

OS:Version,
  {5c1ce5e1-aef0-4c21-a8e3-441ec46969b1}, !- Handle
  2.2.1;                                  !- Version Identifier

OS:Building,
  {bf305633-c5a1-4881-9edf-ca5e1a8e1274}, !- Handle
  Building,                               !- Name
  ,                                       !- Building Sector Type
  ,                                       !- North Axis {deg}
  ,                                       !- Nominal Floor to Floor Height {m}
  ,                                       !- Space Type Name
  ,                                       !- Default Construction Set Name
  ,                                       !- Default Schedule Set Name
  1,                                      !- Standards Number of Stories
  1,                                      !- Standards Number of Above Ground Stories
  multifamily,                            !- Standards Building Type
  8;                                      !- Standards Number of Living Units

OS:YearDescription,
  {513d8dda-86cb-442a-b01c-1f7f0e0ac70e}; !- Handle

OS:SimulationControl,
  {2c487a4c-bac9-4ac5-b669-1e49d9da7c2b}, !- Handle
  ,                                       !- Do Zone Sizing Calculation
  ,                                       !- Do System Sizing Calculation
  ,                                       !- Do Plant Sizing Calculation
  No,                                     !- Run Simulation for Sizing Periods
  ;                                       !- Run Simulation for Weather File Run Periods

OS:Timestep,
  {4ebc9f1e-4707-402e-9844-67eb1ffbd522}, !- Handle
  6;                                      !- Number of Timesteps per Hour

OS:RunPeriod,
  {28df894d-6af9-4fb8-8f56-df1753344aa3}, !- Handle
  Run Period,                             !- Name
  1,                                      !- Begin Month
  1,                                      !- Begin Day of Month
  12,                                     !- End Month
  31,                                     !- End Day of Month
  ,                                       !- Use Weather File Holidays and Special Days
  ,                                       !- Use Weather File Daylight Saving Period
  ,                                       !- Apply Weekend Holiday Rule
  ,                                       !- Use Weather File Rain Indicators
  ,                                       !- Use Weather File Snow Indicators
  ;                                       !- Number of Times Runperiod to be Repeated

OS:Sizing:Parameters,
  {dde5af6f-7923-4600-a28a-7556673a0266}, !- Handle
  1.0,                                    !- Heating Sizing Factor
  1.0;                                    !- Cooling Sizing Factor

OS:ShadowCalculation,
  {ca758bea-4416-4626-9bba-3d8795c79bd6}, !- Handle
  20,                                     !- Calculation Frequency
  200;                                    !- Maximum Figures in Shadow Overlap Calculations

OS:SurfaceConvectionAlgorithm:Inside,
  {aaabfc36-718a-4ab0-b622-f186ebb45230}, !- Handle
  TARP;                                   !- Algorithm

OS:SurfaceConvectionAlgorithm:Outside,
  {9a0a9f6f-4bbd-4b12-a121-9492a1fcd7d6}, !- Handle
  DOE-2;                                  !- Algorithm

OS:HeatBalanceAlgorithm,
  {9d93e563-e1e0-46d7-9e39-d1c8aceb7212}, !- Handle
  ConductionTransferFunction,             !- Algorithm
  200;                                    !- Surface Temperature Upper Limit {C}

OS:ZoneCapacitanceMultiplier:ResearchSpecial,
  {6bfced16-b16f-47f6-8223-f7e267d75d19}, !- Handle
  ,                                       !- Temperature Capacity Multiplier
  15,                                     !- Humidity Capacity Multiplier
  ;                                       !- Carbon Dioxide Capacity Multiplier

OS:ThermalZone,
  {c4d84baa-b41d-457a-a8e2-f3037131042b}, !- Handle
  living zone,                            !- Name
  ,                                       !- Multiplier
  ,                                       !- Ceiling Height {m}
  ,                                       !- Volume {m3}
  ,                                       !- Floor Area {m2}
  ,                                       !- Zone Inside Convection Algorithm
  ,                                       !- Zone Outside Convection Algorithm
  ,                                       !- Zone Conditioning Equipment List Name
  {4c57a9a5-2c12-4bd0-9621-825ab111d171}, !- Zone Air Inlet Port List
  {4579cbae-101f-406a-8e32-de10f42a6269}, !- Zone Air Exhaust Port List
  {009e7de6-73ce-4bec-9b66-162124549229}, !- Zone Air Node Name
  ,                                       !- Zone Return Air Node Name
  ,                                       !- Primary Daylighting Control Name
  ,                                       !- Fraction of Zone Controlled by Primary Daylighting Control
  ,                                       !- Secondary Daylighting Control Name
  ,                                       !- Fraction of Zone Controlled by Secondary Daylighting Control
  ,                                       !- Illuminance Map Name
  ,                                       !- Group Rendering Name
  ,                                       !- Thermostat Name
  No;                                     !- Use Ideal Air Loads

OS:Node,
  {0f9064f7-56a6-4a76-a4b3-0632c0094346}, !- Handle
  Node 1,                                 !- Name
  {009e7de6-73ce-4bec-9b66-162124549229}, !- Inlet Port
  ;                                       !- Outlet Port

OS:Connection,
  {009e7de6-73ce-4bec-9b66-162124549229}, !- Handle
  {71bf36a6-45aa-49e9-91bf-b0153501cc4d}, !- Name
  {c4d84baa-b41d-457a-a8e2-f3037131042b}, !- Source Object
  11,                                     !- Outlet Port
  {0f9064f7-56a6-4a76-a4b3-0632c0094346}, !- Target Object
  2;                                      !- Inlet Port

OS:PortList,
  {4c57a9a5-2c12-4bd0-9621-825ab111d171}, !- Handle
  {db990d99-ae5f-4a4a-8736-68691cc4e9ce}, !- Name
  {c4d84baa-b41d-457a-a8e2-f3037131042b}; !- HVAC Component

OS:PortList,
  {4579cbae-101f-406a-8e32-de10f42a6269}, !- Handle
  {56b819ae-22f2-44e3-b802-d5f45b15aa6a}, !- Name
  {c4d84baa-b41d-457a-a8e2-f3037131042b}; !- HVAC Component

OS:Sizing:Zone,
  {3dcf6826-ad9e-41a1-8ffa-98e398d6b612}, !- Handle
  {c4d84baa-b41d-457a-a8e2-f3037131042b}, !- Zone or ZoneList Name
  SupplyAirTemperature,                   !- Zone Cooling Design Supply Air Temperature Input Method
  14,                                     !- Zone Cooling Design Supply Air Temperature {C}
  11.11,                                  !- Zone Cooling Design Supply Air Temperature Difference {deltaC}
  SupplyAirTemperature,                   !- Zone Heating Design Supply Air Temperature Input Method
  40,                                     !- Zone Heating Design Supply Air Temperature {C}
  11.11,                                  !- Zone Heating Design Supply Air Temperature Difference {deltaC}
  0.0085,                                 !- Zone Cooling Design Supply Air Humidity Ratio {kg-H2O/kg-air}
  0.008,                                  !- Zone Heating Design Supply Air Humidity Ratio {kg-H2O/kg-air}
  ,                                       !- Zone Heating Sizing Factor
  ,                                       !- Zone Cooling Sizing Factor
  DesignDay,                              !- Cooling Design Air Flow Method
  ,                                       !- Cooling Design Air Flow Rate {m3/s}
  ,                                       !- Cooling Minimum Air Flow per Zone Floor Area {m3/s-m2}
  ,                                       !- Cooling Minimum Air Flow {m3/s}
  ,                                       !- Cooling Minimum Air Flow Fraction
  DesignDay,                              !- Heating Design Air Flow Method
  ,                                       !- Heating Design Air Flow Rate {m3/s}
  ,                                       !- Heating Maximum Air Flow per Zone Floor Area {m3/s-m2}
  ,                                       !- Heating Maximum Air Flow {m3/s}
  ,                                       !- Heating Maximum Air Flow Fraction
  ,                                       !- Design Zone Air Distribution Effectiveness in Cooling Mode
  ,                                       !- Design Zone Air Distribution Effectiveness in Heating Mode
  No,                                     !- Account for Dedicated Outdoor Air System
  NeutralSupplyAir,                       !- Dedicated Outdoor Air System Control Strategy
  autosize,                               !- Dedicated Outdoor Air Low Setpoint Temperature for Design {C}
  autosize;                               !- Dedicated Outdoor Air High Setpoint Temperature for Design {C}

OS:ZoneHVAC:EquipmentList,
  {be5b5761-c142-4b0b-bce8-d113080ddb46}, !- Handle
  Zone HVAC Equipment List 1,             !- Name
  {c4d84baa-b41d-457a-a8e2-f3037131042b}; !- Thermal Zone

OS:Space,
  {1f45af96-211f-48b0-ad7d-e5311a33e9b7}, !- Handle
  living space,                           !- Name
  ,                                       !- Space Type Name
  ,                                       !- Default Construction Set Name
  ,                                       !- Default Schedule Set Name
  ,                                       !- Direction of Relative North {deg}
  ,                                       !- X Origin {m}
  ,                                       !- Y Origin {m}
  ,                                       !- Z Origin {m}
  ,                                       !- Building Story Name
  {c4d84baa-b41d-457a-a8e2-f3037131042b}, !- Thermal Zone Name
  ,                                       !- Part of Total Floor Area
  ,                                       !- Design Specification Outdoor Air Object Name
  {a9606974-d4be-42d2-89ad-d9a10e311623}; !- Building Unit Name

OS:Surface,
  {e9d2efa8-e27d-439c-932e-c14bbfc54e83}, !- Handle
  Surface 1,                              !- Name
  Floor,                                  !- Surface Type
  ,                                       !- Construction Name
  {1f45af96-211f-48b0-ad7d-e5311a33e9b7}, !- Space Name
  Ground,                                 !- Outside Boundary Condition
  ,                                       !- Outside Boundary Condition Object
  NoSun,                                  !- Sun Exposure
  NoWind,                                 !- Wind Exposure
  ,                                       !- View Factor to Ground
  ,                                       !- Number of Vertices
  0, -13.1876643451371, 0,                !- X,Y,Z Vertex 1 {m}
  0, 0, 0,                                !- X,Y,Z Vertex 2 {m}
  6.59383217256854, 0, 0,                 !- X,Y,Z Vertex 3 {m}
  6.59383217256854, -11.3588643451371, 0, !- X,Y,Z Vertex 4 {m}
  4.76503217256854, -11.3588643451371, 0, !- X,Y,Z Vertex 5 {m}
  4.76503217256854, -13.1876643451371, 0; !- X,Y,Z Vertex 6 {m}

OS:Surface,
  {840f9473-6ac6-42e5-9c89-7a838127c25d}, !- Handle
  Surface 2,                              !- Name
  Wall,                                   !- Surface Type
  ,                                       !- Construction Name
  {1f45af96-211f-48b0-ad7d-e5311a33e9b7}, !- Space Name
  Outdoors,                               !- Outside Boundary Condition
  ,                                       !- Outside Boundary Condition Object
  SunExposed,                             !- Sun Exposure
  WindExposed,                            !- Wind Exposure
  ,                                       !- View Factor to Ground
  ,                                       !- Number of Vertices
  0, 0, 2.4384,                           !- X,Y,Z Vertex 1 {m}
  0, 0, 0,                                !- X,Y,Z Vertex 2 {m}
  0, -13.1876643451371, 0,                !- X,Y,Z Vertex 3 {m}
  0, -13.1876643451371, 2.4384;           !- X,Y,Z Vertex 4 {m}

OS:Surface,
  {b52af5b8-b05f-4161-886e-84a6e7f0b9f6}, !- Handle
  Surface 3,                              !- Name
  Wall,                                   !- Surface Type
  ,                                       !- Construction Name
  {1f45af96-211f-48b0-ad7d-e5311a33e9b7}, !- Space Name
  Adiabatic,                              !- Outside Boundary Condition
  ,                                       !- Outside Boundary Condition Object
  NoSun,                                  !- Sun Exposure
  NoWind,                                 !- Wind Exposure
  ,                                       !- View Factor to Ground
  ,                                       !- Number of Vertices
  6.59383217256854, 0, 2.4384,            !- X,Y,Z Vertex 1 {m}
  6.59383217256854, 0, 0,                 !- X,Y,Z Vertex 2 {m}
  0, 0, 0,                                !- X,Y,Z Vertex 3 {m}
  0, 0, 2.4384;                           !- X,Y,Z Vertex 4 {m}

OS:Surface,
  {b5d32b20-04ed-45d1-ba69-1a2a4ef9cd61}, !- Handle
  Surface 4,                              !- Name
  Wall,                                   !- Surface Type
  ,                                       !- Construction Name
  {1f45af96-211f-48b0-ad7d-e5311a33e9b7}, !- Space Name
  Surface,                                !- Outside Boundary Condition
  {b7fde543-b162-4fc9-8692-a0da96ee5034}, !- Outside Boundary Condition Object
  NoSun,                                  !- Sun Exposure
  NoWind,                                 !- Wind Exposure
  ,                                       !- View Factor to Ground
  ,                                       !- Number of Vertices
  6.59383217256854, -11.3588643451371, 2.4384, !- X,Y,Z Vertex 1 {m}
  6.59383217256854, -11.3588643451371, 0, !- X,Y,Z Vertex 2 {m}
  6.59383217256854, 0, 0,                 !- X,Y,Z Vertex 3 {m}
  6.59383217256854, 0, 2.4384;            !- X,Y,Z Vertex 4 {m}

OS:Surface,
  {83ebdf0e-be22-46bf-b7c8-58366c1061ae}, !- Handle
  Surface 5,                              !- Name
  Wall,                                   !- Surface Type
  ,                                       !- Construction Name
  {1f45af96-211f-48b0-ad7d-e5311a33e9b7}, !- Space Name
  Outdoors,                               !- Outside Boundary Condition
  ,                                       !- Outside Boundary Condition Object
  SunExposed,                             !- Sun Exposure
  WindExposed,                            !- Wind Exposure
  ,                                       !- View Factor to Ground
  ,                                       !- Number of Vertices
  4.76503217256854, -11.3588643451371, 2.4384, !- X,Y,Z Vertex 1 {m}
  4.76503217256854, -11.3588643451371, 0, !- X,Y,Z Vertex 2 {m}
  6.59383217256854, -11.3588643451371, 0, !- X,Y,Z Vertex 3 {m}
  6.59383217256854, -11.3588643451371, 2.4384; !- X,Y,Z Vertex 4 {m}

OS:Surface,
  {c75b1482-a0ca-4c95-8c1a-4a34f7116168}, !- Handle
  Surface 6,                              !- Name
  Wall,                                   !- Surface Type
  ,                                       !- Construction Name
  {1f45af96-211f-48b0-ad7d-e5311a33e9b7}, !- Space Name
  Outdoors,                               !- Outside Boundary Condition
  ,                                       !- Outside Boundary Condition Object
  SunExposed,                             !- Sun Exposure
  WindExposed,                            !- Wind Exposure
  ,                                       !- View Factor to Ground
  ,                                       !- Number of Vertices
  4.76503217256854, -13.1876643451371, 2.4384, !- X,Y,Z Vertex 1 {m}
  4.76503217256854, -13.1876643451371, 0, !- X,Y,Z Vertex 2 {m}
  4.76503217256854, -11.3588643451371, 0, !- X,Y,Z Vertex 3 {m}
  4.76503217256854, -11.3588643451371, 2.4384; !- X,Y,Z Vertex 4 {m}

OS:Surface,
  {32bb89c1-8178-4518-9a3a-8476fa3b7be3}, !- Handle
  Surface 7,                              !- Name
  Wall,                                   !- Surface Type
  ,                                       !- Construction Name
  {1f45af96-211f-48b0-ad7d-e5311a33e9b7}, !- Space Name
  Outdoors,                               !- Outside Boundary Condition
  ,                                       !- Outside Boundary Condition Object
  SunExposed,                             !- Sun Exposure
  WindExposed,                            !- Wind Exposure
  ,                                       !- View Factor to Ground
  ,                                       !- Number of Vertices
  0, -13.1876643451371, 2.4384,           !- X,Y,Z Vertex 1 {m}
  0, -13.1876643451371, 0,                !- X,Y,Z Vertex 2 {m}
  4.76503217256854, -13.1876643451371, 0, !- X,Y,Z Vertex 3 {m}
  4.76503217256854, -13.1876643451371, 2.4384; !- X,Y,Z Vertex 4 {m}

OS:Surface,
  {0b8da4d8-2c4c-43eb-ad42-58c029c676e6}, !- Handle
  Surface 8,                              !- Name
  RoofCeiling,                            !- Surface Type
  ,                                       !- Construction Name
  {1f45af96-211f-48b0-ad7d-e5311a33e9b7}, !- Space Name
  Outdoors,                               !- Outside Boundary Condition
  ,                                       !- Outside Boundary Condition Object
  SunExposed,                             !- Sun Exposure
  WindExposed,                            !- Wind Exposure
  ,                                       !- View Factor to Ground
  ,                                       !- Number of Vertices
  4.76503217256854, -13.1876643451371, 2.4384, !- X,Y,Z Vertex 1 {m}
  4.76503217256854, -11.3588643451371, 2.4384, !- X,Y,Z Vertex 2 {m}
  6.59383217256854, -11.3588643451371, 2.4384, !- X,Y,Z Vertex 3 {m}
  6.59383217256854, 0, 2.4384,            !- X,Y,Z Vertex 4 {m}
  0, 0, 2.4384,                           !- X,Y,Z Vertex 5 {m}
  0, -13.1876643451371, 2.4384;           !- X,Y,Z Vertex 6 {m}

OS:ThermalZone,
  {ef1d7b81-6b47-4b21-b38b-b292c2dc4073}, !- Handle
  living zone|unit 2,                     !- Name
  ,                                       !- Multiplier
  ,                                       !- Ceiling Height {m}
  ,                                       !- Volume {m3}
  ,                                       !- Floor Area {m2}
  ,                                       !- Zone Inside Convection Algorithm
  ,                                       !- Zone Outside Convection Algorithm
  ,                                       !- Zone Conditioning Equipment List Name
  {fbaf2950-d392-46e4-99a4-d1b8f7b2567a}, !- Zone Air Inlet Port List
  {b7e9a710-583f-4d6c-915d-64622fd41856}, !- Zone Air Exhaust Port List
  {37c3e00d-1ac4-47d8-b63f-37859b1f2547}, !- Zone Air Node Name
  ,                                       !- Zone Return Air Node Name
  ,                                       !- Primary Daylighting Control Name
  ,                                       !- Fraction of Zone Controlled by Primary Daylighting Control
  ,                                       !- Secondary Daylighting Control Name
  ,                                       !- Fraction of Zone Controlled by Secondary Daylighting Control
  ,                                       !- Illuminance Map Name
  ,                                       !- Group Rendering Name
  ,                                       !- Thermostat Name
  No;                                     !- Use Ideal Air Loads

OS:Node,
  {6974b1d0-36dc-49c7-98ac-8c5b99554f61}, !- Handle
  Node 2,                                 !- Name
  {37c3e00d-1ac4-47d8-b63f-37859b1f2547}, !- Inlet Port
  ;                                       !- Outlet Port

OS:Connection,
  {37c3e00d-1ac4-47d8-b63f-37859b1f2547}, !- Handle
  {f70cb530-17a1-481c-a41e-806c8086c453}, !- Name
  {ef1d7b81-6b47-4b21-b38b-b292c2dc4073}, !- Source Object
  11,                                     !- Outlet Port
  {6974b1d0-36dc-49c7-98ac-8c5b99554f61}, !- Target Object
  2;                                      !- Inlet Port

OS:PortList,
  {fbaf2950-d392-46e4-99a4-d1b8f7b2567a}, !- Handle
  {74fc39eb-2c17-474c-86c8-b0f815e29d55}, !- Name
  {ef1d7b81-6b47-4b21-b38b-b292c2dc4073}; !- HVAC Component

OS:PortList,
  {b7e9a710-583f-4d6c-915d-64622fd41856}, !- Handle
  {4b0520bc-a923-42df-b019-4096ba905f9c}, !- Name
  {ef1d7b81-6b47-4b21-b38b-b292c2dc4073}; !- HVAC Component

OS:Sizing:Zone,
  {c4da385c-1b0e-431f-bf53-08335db60b21}, !- Handle
  {ef1d7b81-6b47-4b21-b38b-b292c2dc4073}, !- Zone or ZoneList Name
  SupplyAirTemperature,                   !- Zone Cooling Design Supply Air Temperature Input Method
  14,                                     !- Zone Cooling Design Supply Air Temperature {C}
  11.11,                                  !- Zone Cooling Design Supply Air Temperature Difference {deltaC}
  SupplyAirTemperature,                   !- Zone Heating Design Supply Air Temperature Input Method
  40,                                     !- Zone Heating Design Supply Air Temperature {C}
  11.11,                                  !- Zone Heating Design Supply Air Temperature Difference {deltaC}
  0.0085,                                 !- Zone Cooling Design Supply Air Humidity Ratio {kg-H2O/kg-air}
  0.008,                                  !- Zone Heating Design Supply Air Humidity Ratio {kg-H2O/kg-air}
  ,                                       !- Zone Heating Sizing Factor
  ,                                       !- Zone Cooling Sizing Factor
  DesignDay,                              !- Cooling Design Air Flow Method
  ,                                       !- Cooling Design Air Flow Rate {m3/s}
  ,                                       !- Cooling Minimum Air Flow per Zone Floor Area {m3/s-m2}
  ,                                       !- Cooling Minimum Air Flow {m3/s}
  ,                                       !- Cooling Minimum Air Flow Fraction
  DesignDay,                              !- Heating Design Air Flow Method
  ,                                       !- Heating Design Air Flow Rate {m3/s}
  ,                                       !- Heating Maximum Air Flow per Zone Floor Area {m3/s-m2}
  ,                                       !- Heating Maximum Air Flow {m3/s}
  ,                                       !- Heating Maximum Air Flow Fraction
  ,                                       !- Design Zone Air Distribution Effectiveness in Cooling Mode
  ,                                       !- Design Zone Air Distribution Effectiveness in Heating Mode
  No,                                     !- Account for Dedicated Outdoor Air System
  NeutralSupplyAir,                       !- Dedicated Outdoor Air System Control Strategy
  autosize,                               !- Dedicated Outdoor Air Low Setpoint Temperature for Design {C}
  autosize;                               !- Dedicated Outdoor Air High Setpoint Temperature for Design {C}

OS:ZoneHVAC:EquipmentList,
  {ca5664c4-a807-4c16-a97f-6ebca58ce5b7}, !- Handle
  Zone HVAC Equipment List 2,             !- Name
  {ef1d7b81-6b47-4b21-b38b-b292c2dc4073}; !- Thermal Zone

OS:Space,
  {b633b01e-e6e4-4cdd-896a-ad6afe31eb6b}, !- Handle
  living space|unit 2,                    !- Name
  ,                                       !- Space Type Name
  ,                                       !- Default Construction Set Name
  ,                                       !- Default Schedule Set Name
  ,                                       !- Direction of Relative North {deg}
  ,                                       !- X Origin {m}
  ,                                       !- Y Origin {m}
  ,                                       !- Z Origin {m}
  ,                                       !- Building Story Name
  {ef1d7b81-6b47-4b21-b38b-b292c2dc4073}, !- Thermal Zone Name
  ,                                       !- Part of Total Floor Area
  ,                                       !- Design Specification Outdoor Air Object Name
  {4d4d9069-56ac-4ef7-9775-e7d20144b4b4}; !- Building Unit Name

OS:Surface,
  {62891a83-1265-4bd6-b3fd-47a96da7f982}, !- Handle
  Surface 9,                              !- Name
  Floor,                                  !- Surface Type
  ,                                       !- Construction Name
  {b633b01e-e6e4-4cdd-896a-ad6afe31eb6b}, !- Space Name
  Ground,                                 !- Outside Boundary Condition
  ,                                       !- Outside Boundary Condition Object
  NoSun,                                  !- Sun Exposure
  NoWind,                                 !- Wind Exposure
  ,                                       !- View Factor to Ground
  ,                                       !- Number of Vertices
  0, 14.4068643451371, 0,                 !- X,Y,Z Vertex 1 {m}
  1.8288, 14.4068643451371, 0,            !- X,Y,Z Vertex 2 {m}
  1.8288, 16.2356643451371, 0,            !- X,Y,Z Vertex 3 {m}
  6.59383217256854, 16.2356643451371, 0,  !- X,Y,Z Vertex 4 {m}
  6.59383217256854, 3.048, 0,             !- X,Y,Z Vertex 5 {m}
  0, 3.048, 0;                            !- X,Y,Z Vertex 6 {m}

OS:Surface,
  {7ba67234-6405-45ef-a0a6-4e1e52dcb3bd}, !- Handle
  Surface 10,                             !- Name
  Wall,                                   !- Surface Type
  ,                                       !- Construction Name
  {b633b01e-e6e4-4cdd-896a-ad6afe31eb6b}, !- Space Name
  Outdoors,                               !- Outside Boundary Condition
  ,                                       !- Outside Boundary Condition Object
  SunExposed,                             !- Sun Exposure
  WindExposed,                            !- Wind Exposure
  ,                                       !- View Factor to Ground
  ,                                       !- Number of Vertices
  1.8288, 14.4068643451371, 2.4384,       !- X,Y,Z Vertex 1 {m}
  1.8288, 14.4068643451371, 0,            !- X,Y,Z Vertex 2 {m}
  0, 14.4068643451371, 0,                 !- X,Y,Z Vertex 3 {m}
  0, 14.4068643451371, 2.4384;            !- X,Y,Z Vertex 4 {m}

OS:Surface,
  {9762173f-2bd9-4644-be30-5d6b787e8a0c}, !- Handle
  Surface 11,                             !- Name
  Wall,                                   !- Surface Type
  ,                                       !- Construction Name
  {b633b01e-e6e4-4cdd-896a-ad6afe31eb6b}, !- Space Name
  Outdoors,                               !- Outside Boundary Condition
  ,                                       !- Outside Boundary Condition Object
  SunExposed,                             !- Sun Exposure
  WindExposed,                            !- Wind Exposure
  ,                                       !- View Factor to Ground
  ,                                       !- Number of Vertices
  1.8288, 16.2356643451371, 2.4384,       !- X,Y,Z Vertex 1 {m}
  1.8288, 16.2356643451371, 0,            !- X,Y,Z Vertex 2 {m}
  1.8288, 14.4068643451371, 0,            !- X,Y,Z Vertex 3 {m}
  1.8288, 14.4068643451371, 2.4384;       !- X,Y,Z Vertex 4 {m}

OS:Surface,
  {a7434765-28a3-4e93-aaac-fad5e041018b}, !- Handle
  Surface 12,                             !- Name
  Wall,                                   !- Surface Type
  ,                                       !- Construction Name
  {b633b01e-e6e4-4cdd-896a-ad6afe31eb6b}, !- Space Name
  Outdoors,                               !- Outside Boundary Condition
  ,                                       !- Outside Boundary Condition Object
  SunExposed,                             !- Sun Exposure
  WindExposed,                            !- Wind Exposure
  ,                                       !- View Factor to Ground
  ,                                       !- Number of Vertices
  6.59383217256854, 16.2356643451371, 2.4384, !- X,Y,Z Vertex 1 {m}
  6.59383217256854, 16.2356643451371, 0,  !- X,Y,Z Vertex 2 {m}
  1.8288, 16.2356643451371, 0,            !- X,Y,Z Vertex 3 {m}
  1.8288, 16.2356643451371, 2.4384;       !- X,Y,Z Vertex 4 {m}

OS:Surface,
  {a926fea2-e962-45a9-960f-4b162d88313b}, !- Handle
  Surface 13,                             !- Name
  Wall,                                   !- Surface Type
  ,                                       !- Construction Name
  {b633b01e-e6e4-4cdd-896a-ad6afe31eb6b}, !- Space Name
  Surface,                                !- Outside Boundary Condition
  {8716e906-7c65-4fb2-bc3e-ce6e8f5d52f0}, !- Outside Boundary Condition Object
  NoSun,                                  !- Sun Exposure
  NoWind,                                 !- Wind Exposure
  ,                                       !- View Factor to Ground
  ,                                       !- Number of Vertices
  6.59383217256854, 3.048, 2.4384,        !- X,Y,Z Vertex 1 {m}
  6.59383217256854, 3.048, 0,             !- X,Y,Z Vertex 2 {m}
  6.59383217256854, 14.4068643451371, 0,  !- X,Y,Z Vertex 3 {m}
  6.59383217256854, 14.4068643451371, 2.4384; !- X,Y,Z Vertex 4 {m}

OS:Surface,
  {777a7820-e8ae-430c-8354-f6c29cd8355a}, !- Handle
  Surface 14,                             !- Name
  Wall,                                   !- Surface Type
  ,                                       !- Construction Name
  {b633b01e-e6e4-4cdd-896a-ad6afe31eb6b}, !- Space Name
  Adiabatic,                              !- Outside Boundary Condition
  ,                                       !- Outside Boundary Condition Object
  NoSun,                                  !- Sun Exposure
  NoWind,                                 !- Wind Exposure
  ,                                       !- View Factor to Ground
  ,                                       !- Number of Vertices
  0, 3.048, 2.4384,                       !- X,Y,Z Vertex 1 {m}
  0, 3.048, 0,                            !- X,Y,Z Vertex 2 {m}
  6.59383217256854, 3.048, 0,             !- X,Y,Z Vertex 3 {m}
  6.59383217256854, 3.048, 2.4384;        !- X,Y,Z Vertex 4 {m}

OS:Surface,
  {c891776f-69cd-4374-86bd-9cf8aa8d99be}, !- Handle
  Surface 15,                             !- Name
  Wall,                                   !- Surface Type
  ,                                       !- Construction Name
  {b633b01e-e6e4-4cdd-896a-ad6afe31eb6b}, !- Space Name