!- NOTE: Auto-generated from /test/osw_files/SFA_4units_1story_SL_UA_Offset_Windows.osw

OS:Version,
  {a252a3c8-da32-4c10-8d4c-15987a2f2612}, !- Handle
  2.2.0;                                  !- Version Identifier

OS:Building,
  {bf305633-c5a1-4881-9edf-ca5e1a8e1274}, !- Handle
  Building,                               !- Name
  ,                                       !- Building Sector Type
  ,                                       !- North Axis {deg}
  ,                                       !- Nominal Floor to Floor Height {m}
  ,                                       !- Space Type Name
  ,                                       !- Default Construction Set Name
  ,                                       !- Default Schedule Set Name
  1,                                      !- Standards Number of Stories
  1,                                      !- Standards Number of Above Ground Stories
  singlefamilyttached,                    !- Standards Building Type
  4;                                      !- Standards Number of Living Units

OS:YearDescription,
  {513d8dda-86cb-442a-b01c-1f7f0e0ac70e}; !- Handle

OS:SimulationControl,
  {2c487a4c-bac9-4ac5-b669-1e49d9da7c2b}, !- Handle
  ,                                       !- Do Zone Sizing Calculation
  ,                                       !- Do System Sizing Calculation
  ,                                       !- Do Plant Sizing Calculation
  No,                                     !- Run Simulation for Sizing Periods
  ;                                       !- Run Simulation for Weather File Run Periods

OS:Timestep,
  {4ebc9f1e-4707-402e-9844-67eb1ffbd522}, !- Handle
  6;                                      !- Number of Timesteps per Hour

OS:RunPeriod,
  {28df894d-6af9-4fb8-8f56-df1753344aa3}, !- Handle
  Run Period,                             !- Name
  1,                                      !- Begin Month
  1,                                      !- Begin Day of Month
  12,                                     !- End Month
  31,                                     !- End Day of Month
  ,                                       !- Use Weather File Holidays and Special Days
  ,                                       !- Use Weather File Daylight Saving Period
  ,                                       !- Apply Weekend Holiday Rule
  ,                                       !- Use Weather File Rain Indicators
  ,                                       !- Use Weather File Snow Indicators
  ;                                       !- Number of Times Runperiod to be Repeated

OS:Sizing:Parameters,
  {dde5af6f-7923-4600-a28a-7556673a0266}, !- Handle
  1.0,                                    !- Heating Sizing Factor
  1.0;                                    !- Cooling Sizing Factor

OS:ShadowCalculation,
  {ca758bea-4416-4626-9bba-3d8795c79bd6}, !- Handle
  20,                                     !- Calculation Frequency
  200;                                    !- Maximum Figures in Shadow Overlap Calculations

OS:SurfaceConvectionAlgorithm:Inside,
  {aaabfc36-718a-4ab0-b622-f186ebb45230}, !- Handle
  TARP;                                   !- Algorithm

OS:SurfaceConvectionAlgorithm:Outside,
  {9a0a9f6f-4bbd-4b12-a121-9492a1fcd7d6}, !- Handle
  DOE-2;                                  !- Algorithm

OS:HeatBalanceAlgorithm,
  {9d93e563-e1e0-46d7-9e39-d1c8aceb7212}, !- Handle
  ConductionTransferFunction,             !- Algorithm
  200;                                    !- Surface Temperature Upper Limit {C}

OS:ZoneCapacitanceMultiplier:ResearchSpecial,
  {6bfced16-b16f-47f6-8223-f7e267d75d19}, !- Handle
  ,                                       !- Temperature Capacity Multiplier
  15,                                     !- Humidity Capacity Multiplier
  ;                                       !- Carbon Dioxide Capacity Multiplier

OS:ThermalZone,
  {56a44b0c-a858-4977-8a63-4b553bd2fd3b}, !- Handle
  Thermal Zone 1,                         !- Name
  ,                                       !- Multiplier
  ,                                       !- Ceiling Height {m}
  ,                                       !- Volume {m3}
  ,                                       !- Floor Area {m2}
  ,                                       !- Zone Inside Convection Algorithm
  ,                                       !- Zone Outside Convection Algorithm
  ,                                       !- Zone Conditioning Equipment List Name
  {46a419ca-d528-4077-817b-9b6f6a937501}, !- Zone Air Inlet Port List
  {2dc6980d-a9ed-454a-9702-bb8e2a2b23b7}, !- Zone Air Exhaust Port List
  {1e531682-dcfc-4dc6-bd3a-1773fd177cdf}, !- Zone Air Node Name
  ,                                       !- Zone Return Air Node Name
  ,                                       !- Primary Daylighting Control Name
  ,                                       !- Fraction of Zone Controlled by Primary Daylighting Control
  ,                                       !- Secondary Daylighting Control Name
  ,                                       !- Fraction of Zone Controlled by Secondary Daylighting Control
  ,                                       !- Illuminance Map Name
  ,                                       !- Group Rendering Name
  ,                                       !- Thermostat Name
  No;                                     !- Use Ideal Air Loads

OS:Node,
  {b3ac42e3-80d7-458a-9f3c-0c2dea13b259}, !- Handle
  Node 1,                                 !- Name
  {1e531682-dcfc-4dc6-bd3a-1773fd177cdf}, !- Inlet Port
  ;                                       !- Outlet Port

OS:Connection,
  {1e531682-dcfc-4dc6-bd3a-1773fd177cdf}, !- Handle
  {3112cf44-7b6c-4ebd-b766-8be15cdf78aa}, !- Name
  {56a44b0c-a858-4977-8a63-4b553bd2fd3b}, !- Source Object
  11,                                     !- Outlet Port
  {b3ac42e3-80d7-458a-9f3c-0c2dea13b259}, !- Target Object
  2;                                      !- Inlet Port

OS:PortList,
  {46a419ca-d528-4077-817b-9b6f6a937501}, !- Handle
  {e4ceb1c7-4df1-41ca-96ca-915d7e22284d}, !- Name
  {56a44b0c-a858-4977-8a63-4b553bd2fd3b}; !- HVAC Component

OS:PortList,
  {2dc6980d-a9ed-454a-9702-bb8e2a2b23b7}, !- Handle
  {04a4b4b4-a2e8-432f-8797-7905564d3e72}, !- Name
  {56a44b0c-a858-4977-8a63-4b553bd2fd3b}; !- HVAC Component

OS:Sizing:Zone,
  {66338c3d-4e0a-45b7-944d-de6fc578cccd}, !- Handle
  {56a44b0c-a858-4977-8a63-4b553bd2fd3b}, !- Zone or ZoneList Name
  SupplyAirTemperature,                   !- Zone Cooling Design Supply Air Temperature Input Method
  14,                                     !- Zone Cooling Design Supply Air Temperature {C}
  11.11,                                  !- Zone Cooling Design Supply Air Temperature Difference {deltaC}
  SupplyAirTemperature,                   !- Zone Heating Design Supply Air Temperature Input Method
  40,                                     !- Zone Heating Design Supply Air Temperature {C}
  11.11,                                  !- Zone Heating Design Supply Air Temperature Difference {deltaC}
  0.0085,                                 !- Zone Cooling Design Supply Air Humidity Ratio {kg-H2O/kg-air}
  0.008,                                  !- Zone Heating Design Supply Air Humidity Ratio {kg-H2O/kg-air}
  ,                                       !- Zone Heating Sizing Factor
  ,                                       !- Zone Cooling Sizing Factor
  DesignDay,                              !- Cooling Design Air Flow Method
  ,                                       !- Cooling Design Air Flow Rate {m3/s}
  ,                                       !- Cooling Minimum Air Flow per Zone Floor Area {m3/s-m2}
  ,                                       !- Cooling Minimum Air Flow {m3/s}
  ,                                       !- Cooling Minimum Air Flow Fraction
  DesignDay,                              !- Heating Design Air Flow Method
  ,                                       !- Heating Design Air Flow Rate {m3/s}
  ,                                       !- Heating Maximum Air Flow per Zone Floor Area {m3/s-m2}
  ,                                       !- Heating Maximum Air Flow {m3/s}
  ,                                       !- Heating Maximum Air Flow Fraction
  ,                                       !- Design Zone Air Distribution Effectiveness in Cooling Mode
  ,                                       !- Design Zone Air Distribution Effectiveness in Heating Mode
  No,                                     !- Account for Dedicated Outdoor Air System
  NeutralSupplyAir,                       !- Dedicated Outdoor Air System Control Strategy
  autosize,                               !- Dedicated Outdoor Air Low Setpoint Temperature for Design {C}
  autosize;                               !- Dedicated Outdoor Air High Setpoint Temperature for Design {C}

OS:ZoneHVAC:EquipmentList,
  {8496d0a7-6121-4938-8973-4d87a094b7bc}, !- Handle
  Zone HVAC Equipment List 1,             !- Name
  {56a44b0c-a858-4977-8a63-4b553bd2fd3b}; !- Thermal Zone

OS:Space,
  {5b3d5b25-d42a-4181-bba1-e91b9c924317}, !- Handle
  Space 1,                                !- Name
  {b0041cb2-8b6a-4631-820c-c323c6ccfeb1}, !- Space Type Name
  ,                                       !- Default Construction Set Name
  ,                                       !- Default Schedule Set Name
  ,                                       !- Direction of Relative North {deg}
  ,                                       !- X Origin {m}
  ,                                       !- Y Origin {m}
  ,                                       !- Z Origin {m}
  ,                                       !- Building Story Name
  {56a44b0c-a858-4977-8a63-4b553bd2fd3b}, !- Thermal Zone Name
  ,                                       !- Part of Total Floor Area
  ,                                       !- Design Specification Outdoor Air Object Name
  {68f1d374-081b-480e-a8a7-1b979fe225a3}; !- Building Unit Name

OS:Surface,
  {184a9ec9-1d7e-4f2f-b300-79df8e122b85}, !- Handle
  Surface 1,                              !- Name
  Floor,                                  !- Surface Type
  ,                                       !- Construction Name
  {5b3d5b25-d42a-4181-bba1-e91b9c924317}, !- Space Name
  Ground,                                 !- Outside Boundary Condition
  ,                                       !- Outside Boundary Condition Object
  NoSun,                                  !- Sun Exposure
  NoWind,                                 !- Wind Exposure
  ,                                       !- View Factor to Ground
  ,                                       !- Number of Vertices
  0, -12.9315688143396, 0,                !- X,Y,Z Vertex 1 {m}
  0, 0, 0,                                !- X,Y,Z Vertex 2 {m}
  6.46578440716979, 0, 0,                 !- X,Y,Z Vertex 3 {m}
  6.46578440716979, -12.9315688143396, 0; !- X,Y,Z Vertex 4 {m}

OS:Surface,
  {cd489a2a-fec4-480c-b08c-c8e06e1a4bdc}, !- Handle
  Surface 2,                              !- Name
  Wall,                                   !- Surface Type
  ,                                       !- Construction Name
  {5b3d5b25-d42a-4181-bba1-e91b9c924317}, !- Space Name
  Outdoors,                               !- Outside Boundary Condition
  ,                                       !- Outside Boundary Condition Object
  SunExposed,                             !- Sun Exposure
  WindExposed,                            !- Wind Exposure
  ,                                       !- View Factor to Ground
  ,                                       !- Number of Vertices
  0, 0, 2.4384,                           !- X,Y,Z Vertex 1 {m}
  0, 0, 0,                                !- X,Y,Z Vertex 2 {m}
  0, -12.9315688143396, 0,                !- X,Y,Z Vertex 3 {m}
  0, -12.9315688143396, 2.4384;           !- X,Y,Z Vertex 4 {m}

OS:Surface,
  {c20dbb2e-16e3-4cd1-beeb-04886401b0bb}, !- Handle
  Surface 3,                              !- Name
  Wall,                                   !- Surface Type
  ,                                       !- Construction Name
  {5b3d5b25-d42a-4181-bba1-e91b9c924317}, !- Space Name
  Outdoors,                               !- Outside Boundary Condition
  ,                                       !- Outside Boundary Condition Object
  SunExposed,                             !- Sun Exposure
  WindExposed,                            !- Wind Exposure
  ,                                       !- View Factor to Ground
  ,                                       !- Number of Vertices
  6.46578440716979, 0, 2.4384,            !- X,Y,Z Vertex 1 {m}
  6.46578440716979, 0, 0,                 !- X,Y,Z Vertex 2 {m}
  0, 0, 0,                                !- X,Y,Z Vertex 3 {m}
  0, 0, 2.4384;                           !- X,Y,Z Vertex 4 {m}

OS:Surface,
  {1682ed89-3c59-4b9b-9394-ea1abdacc004}, !- Handle
  Surface 4,                              !- Name
  Wall,                                   !- Surface Type
  ,                                       !- Construction Name
  {5b3d5b25-d42a-4181-bba1-e91b9c924317}, !- Space Name
  Surface,                                !- Outside Boundary Condition
  {93d21a26-6601-426d-9a1e-14a3b9a0a8d7}, !- Outside Boundary Condition Object
  NoSun,                                  !- Sun Exposure
  NoWind,                                 !- Wind Exposure
  ,                                       !- View Factor to Ground
  ,                                       !- Number of Vertices
  6.46578440716979, -11.1027688143396, 2.4384, !- X,Y,Z Vertex 1 {m}
  6.46578440716979, -11.1027688143396, 0, !- X,Y,Z Vertex 2 {m}
  6.46578440716979, 0, 0,                 !- X,Y,Z Vertex 3 {m}
  6.46578440716979, 0, 2.4384;            !- X,Y,Z Vertex 4 {m}

OS:Surface,
  {453367ab-15f4-4020-8f32-f3ff2804399b}, !- Handle
  Surface 5,                              !- Name
  Wall,                                   !- Surface Type
  ,                                       !- Construction Name
  {5b3d5b25-d42a-4181-bba1-e91b9c924317}, !- Space Name
  Outdoors,                               !- Outside Boundary Condition
  ,                                       !- Outside Boundary Condition Object
  SunExposed,                             !- Sun Exposure
  WindExposed,                            !- Wind Exposure
  ,                                       !- View Factor to Ground
  ,                                       !- Number of Vertices
  0, -12.9315688143396, 2.4384,           !- X,Y,Z Vertex 1 {m}
  0, -12.9315688143396, 0,                !- X,Y,Z Vertex 2 {m}
  6.46578440716979, -12.9315688143396, 0, !- X,Y,Z Vertex 3 {m}
  6.46578440716979, -12.9315688143396, 2.4384; !- X,Y,Z Vertex 4 {m}

OS:Surface,
  {de73aed0-7ec0-4845-b706-8af9f1ea9157}, !- Handle
  Surface 6,                              !- Name
  RoofCeiling,                            !- Surface Type
  ,                                       !- Construction Name
  {5b3d5b25-d42a-4181-bba1-e91b9c924317}, !- Space Name
  Surface,                                !- Outside Boundary Condition
  {093522e3-957a-496e-94f6-0ae74a960c9a}, !- Outside Boundary Condition Object
  NoSun,                                  !- Sun Exposure
  NoWind,                                 !- Wind Exposure
  ,                                       !- View Factor to Ground
  ,                                       !- Number of Vertices
  6.46578440716979, -12.9315688143396, 2.4384, !- X,Y,Z Vertex 1 {m}
  6.46578440716979, 0, 2.4384,            !- X,Y,Z Vertex 2 {m}
  0, 0, 2.4384,                           !- X,Y,Z Vertex 3 {m}
  0, -12.9315688143396, 2.4384;           !- X,Y,Z Vertex 4 {m}

OS:SpaceType,
  {b0041cb2-8b6a-4631-820c-c323c6ccfeb1}, !- Handle
  Space Type 1,                           !- Name
  ,                                       !- Default Construction Set Name
  ,                                       !- Default Schedule Set Name
  ,                                       !- Group Rendering Name
  ,                                       !- Design Specification Outdoor Air Object Name
  ,                                       !- Standards Building Type
  living;                                 !- Standards Space Type

OS:Surface,
  {093522e3-957a-496e-94f6-0ae74a960c9a}, !- Handle
  Surface 7,                              !- Name
  Floor,                                  !- Surface Type
  ,                                       !- Construction Name
  {7cac7f8f-bcc5-43ce-85e3-65caeacc7c27}, !- Space Name
  Surface,                                !- Outside Boundary Condition
  {de73aed0-7ec0-4845-b706-8af9f1ea9157}, !- Outside Boundary Condition Object
  NoSun,                                  !- Sun Exposure
  NoWind,                                 !- Wind Exposure
  ,                                       !- View Factor to Ground
  ,                                       !- Number of Vertices
  0, -12.9315688143396, 2.4384,           !- X,Y,Z Vertex 1 {m}
  0, 0, 2.4384,                           !- X,Y,Z Vertex 2 {m}
  6.46578440716979, 0, 2.4384,            !- X,Y,Z Vertex 3 {m}
  6.46578440716979, -12.9315688143396, 2.4384; !- X,Y,Z Vertex 4 {m}

OS:Surface,
  {f74c4b77-dfb8-46d6-b5b1-e36d549e47ee}, !- Handle
  Surface 8,                              !- Name
  RoofCeiling,                            !- Surface Type
  ,                                       !- Construction Name
  {7cac7f8f-bcc5-43ce-85e3-65caeacc7c27}, !- Space Name
  Outdoors,                               !- Outside Boundary Condition
  ,                                       !- Outside Boundary Condition Object
  SunExposed,                             !- Sun Exposure
  WindExposed,                            !- Wind Exposure
  ,                                       !- View Factor to Ground
  ,                                       !- Number of Vertices
  3.2328922035849, 0, 4.05484610179245,   !- X,Y,Z Vertex 1 {m}
  0, 0, 2.4384,                           !- X,Y,Z Vertex 2 {m}
  0, -12.9315688143396, 2.4384,           !- X,Y,Z Vertex 3 {m}
  3.2328922035849, -12.9315688143396, 4.05484610179245; !- X,Y,Z Vertex 4 {m}

OS:Surface,
  {cc943dd0-b19e-4e14-a84c-86f652358a7a}, !- Handle
  Surface 9,                              !- Name
  RoofCeiling,                            !- Surface Type
  ,                                       !- Construction Name
  {7cac7f8f-bcc5-43ce-85e3-65caeacc7c27}, !- Space Name
  Outdoors,                               !- Outside Boundary Condition
  ,                                       !- Outside Boundary Condition Object
  SunExposed,                             !- Sun Exposure
  WindExposed,                            !- Wind Exposure
  ,                                       !- View Factor to Ground
  ,                                       !- Number of Vertices
  3.2328922035849, -12.9315688143396, 4.05484610179245, !- X,Y,Z Vertex 1 {m}
  6.46578440716979, -12.9315688143396, 2.4384, !- X,Y,Z Vertex 2 {m}
  6.46578440716979, 0, 2.4384,            !- X,Y,Z Vertex 3 {m}
  3.2328922035849, 0, 4.05484610179245;   !- X,Y,Z Vertex 4 {m}

OS:Surface,
  {714eccfb-4641-473b-bca0-53e79467d7d4}, !- Handle
  Surface 10,                             !- Name
  Wall,                                   !- Surface Type
  ,                                       !- Construction Name
  {7cac7f8f-bcc5-43ce-85e3-65caeacc7c27}, !- Space Name
  Outdoors,                               !- Outside Boundary Condition
  ,                                       !- Outside Boundary Condition Object
  SunExposed,                             !- Sun Exposure
  WindExposed,                            !- Wind Exposure
  ,                                       !- View Factor to Ground
  ,                                       !- Number of Vertices
  3.2328922035849, -12.9315688143396, 4.05484610179245, !- X,Y,Z Vertex 1 {m}
  0, -12.9315688143396, 2.4384,           !- X,Y,Z Vertex 2 {m}
  6.46578440716979, -12.9315688143396, 2.4384; !- X,Y,Z Vertex 3 {m}

OS:Surface,
  {1a7b41c9-b707-42e1-a4e7-b44bf0fde623}, !- Handle
  Surface 11,                             !- Name
  Wall,                                   !- Surface Type
  ,                                       !- Construction Name
  {7cac7f8f-bcc5-43ce-85e3-65caeacc7c27}, !- Space Name
  Outdoors,                               !- Outside Boundary Condition
  ,                                       !- Outside Boundary Condition Object
  SunExposed,                             !- Sun Exposure
  WindExposed,                            !- Wind Exposure
  ,                                       !- View Factor to Ground
  ,                                       !- Number of Vertices
  3.2328922035849, 0, 4.05484610179245,   !- X,Y,Z Vertex 1 {m}
  6.46578440716979, 0, 2.4384,            !- X,Y,Z Vertex 2 {m}
  0, 0, 2.4384;                           !- X,Y,Z Vertex 3 {m}

OS:ThermalZone,
  {5ad281e4-b6a3-49da-810c-5ce6d95ad098}, !- Handle
  Thermal Zone 2,                         !- Name
  ,                                       !- Multiplier
  ,                                       !- Ceiling Height {m}
  ,                                       !- Volume {m3}
  ,                                       !- Floor Area {m2}
  ,                                       !- Zone Inside Convection Algorithm
  ,                                       !- Zone Outside Convection Algorithm
  ,                                       !- Zone Conditioning Equipment List Name
  {26b062d9-8d4b-4d69-87ef-d2cdb5a17b66}, !- Zone Air Inlet Port List
  {a1bf7ae9-9b42-4ed5-9b71-0ba6adcd4877}, !- Zone Air Exhaust Port List
  {2973d77b-a9aa-486d-a7cf-12a1d8885ac6}, !- Zone Air Node Name
  ,                                       !- Zone Return Air Node Name
  ,                                       !- Primary Daylighting Control Name
  ,                                       !- Fraction of Zone Controlled by Primary Daylighting Control
  ,                                       !- Secondary Daylighting Control Name
  ,                                       !- Fraction of Zone Controlled by Secondary Daylighting Control
  ,                                       !- Illuminance Map Name
  ,                                       !- Group Rendering Name
  ,                                       !- Thermostat Name
  No;                                     !- Use Ideal Air Loads

OS:Node,
  {0cbe77a0-e7ab-47af-b6a8-495fd9b3afc7}, !- Handle
  Node 2,                                 !- Name
  {2973d77b-a9aa-486d-a7cf-12a1d8885ac6}, !- Inlet Port
  ;                                       !- Outlet Port

OS:Connection,
  {2973d77b-a9aa-486d-a7cf-12a1d8885ac6}, !- Handle
  {a726dc60-799b-4db2-bebb-3ef9895ac76d}, !- Name
  {5ad281e4-b6a3-49da-810c-5ce6d95ad098}, !- Source Object
  11,                                     !- Outlet Port
  {0cbe77a0-e7ab-47af-b6a8-495fd9b3afc7}, !- Target Object
  2;                                      !- Inlet Port

OS:PortList,
  {26b062d9-8d4b-4d69-87ef-d2cdb5a17b66}, !- Handle
  {da18a02e-7672-47f4-b888-99e20a295bc9}, !- Name
  {5ad281e4-b6a3-49da-810c-5ce6d95ad098}; !- HVAC Component

OS:PortList,
  {a1bf7ae9-9b42-4ed5-9b71-0ba6adcd4877}, !- Handle
  {823bf0f7-7080-4b19-a8ee-3dfbe3f7f47a}, !- Name
  {5ad281e4-b6a3-49da-810c-5ce6d95ad098}; !- HVAC Component

OS:Sizing:Zone,
  {3f110f91-986c-4f9e-9c31-40372b0d464b}, !- Handle
  {5ad281e4-b6a3-49da-810c-5ce6d95ad098}, !- Zone or ZoneList Name
  SupplyAirTemperature,                   !- Zone Cooling Design Supply Air Temperature Input Method
  14,                                     !- Zone Cooling Design Supply Air Temperature {C}
  11.11,                                  !- Zone Cooling Design Supply Air Temperature Difference {deltaC}
  SupplyAirTemperature,                   !- Zone Heating Design Supply Air Temperature Input Method
  40,                                     !- Zone Heating Design Supply Air Temperature {C}
  11.11,                                  !- Zone Heating Design Supply Air Temperature Difference {deltaC}
  0.0085,                                 !- Zone Cooling Design Supply Air Humidity Ratio {kg-H2O/kg-air}
  0.008,                                  !- Zone Heating Design Supply Air Humidity Ratio {kg-H2O/kg-air}
  ,                                       !- Zone Heating Sizing Factor
  ,                                       !- Zone Cooling Sizing Factor
  DesignDay,                              !- Cooling Design Air Flow Method
  ,                                       !- Cooling Design Air Flow Rate {m3/s}
  ,                                       !- Cooling Minimum Air Flow per Zone Floor Area {m3/s-m2}
  ,                                       !- Cooling Minimum Air Flow {m3/s}
  ,                                       !- Cooling Minimum Air Flow Fraction
  DesignDay,                              !- Heating Design Air Flow Method
  ,                                       !- Heating Design Air Flow Rate {m3/s}
  ,                                       !- Heating Maximum Air Flow per Zone Floor Area {m3/s-m2}
  ,                                       !- Heating Maximum Air Flow {m3/s}
  ,                                       !- Heating Maximum Air Flow Fraction
  ,                                       !- Design Zone Air Distribution Effectiveness in Cooling Mode
  ,                                       !- Design Zone Air Distribution Effectiveness in Heating Mode
  No,                                     !- Account for Dedicated Outdoor Air System
  NeutralSupplyAir,                       !- Dedicated Outdoor Air System Control Strategy
  autosize,                               !- Dedicated Outdoor Air Low Setpoint Temperature for Design {C}
  autosize;                               !- Dedicated Outdoor Air High Setpoint Temperature for Design {C}

OS:ZoneHVAC:EquipmentList,
  {e56f0a92-6775-4f17-9b5f-afe5518fee73}, !- Handle
  Zone HVAC Equipment List 2,             !- Name
  {5ad281e4-b6a3-49da-810c-5ce6d95ad098}; !- Thermal Zone

OS:Space,
  {4e349869-4245-4a5d-b8cb-7f9ecb2e98c0}, !- Handle
  Space 3,                                !- Name
  {b0041cb2-8b6a-4631-820c-c323c6ccfeb1}, !- Space Type Name
  ,                                       !- Default Construction Set Name
  ,                                       !- Default Schedule Set Name
  -0,                                     !- Direction of Relative North {deg}
  0,                                      !- X Origin {m}
  0,                                      !- Y Origin {m}
  0,                                      !- Z Origin {m}
  ,                                       !- Building Story Name
  {5ad281e4-b6a3-49da-810c-5ce6d95ad098}, !- Thermal Zone Name
  ,                                       !- Part of Total Floor Area
  ,                                       !- Design Specification Outdoor Air Object Name
  {812a2b4f-4d8c-4ddd-9416-3ff1a2580113}; !- Building Unit Name

OS:Surface,
  {bbda0731-f21a-4cae-9ee0-c839c1bc0e0f}, !- Handle
  Surface 12,                             !- Name
  Floor,                                  !- Surface Type
  ,                                       !- Construction Name
  {4e349869-4245-4a5d-b8cb-7f9ecb2e98c0}, !- Space Name
  Ground,                                 !- Outside Boundary Condition
  ,                                       !- Outside Boundary Condition Object
  NoSun,                                  !- Sun Exposure
  NoWind,                                 !- Wind Exposure
  ,                                       !- View Factor to Ground
  ,                                       !- Number of Vertices
  6.46578440716979, -11.1027688143396, 0, !- X,Y,Z Vertex 1 {m}
  6.46578440716979, 1.8288, 0,            !- X,Y,Z Vertex 2 {m}
  12.9315688143396, 1.8288, 0,            !- X,Y,Z Vertex 3 {m}
  12.9315688143396, -11.1027688143396, 0; !- X,Y,Z Vertex 4 {m}

OS:Surface,
  {93d21a26-6601-426d-9a1e-14a3b9a0a8d7}, !- Handle
  Surface 13,                             !- Name
  Wall,                                   !- Surface Type
  ,                                       !- Construction Name
  {4e349869-4245-4a5d-b8cb-7f9ecb2e98c0}, !- Space Name
  Surface,                                !- Outside Boundary Condition
  {1682ed89-3c59-4b9b-9394-ea1abdacc004}, !- Outside Boundary Condition Object
  NoSun,                                  !- Sun Exposure
  NoWind,                                 !- Wind Exposure
  ,                                       !- View Factor to Ground
  ,                                       !- Number of Vertices
  6.46578440716979, 0, 2.4384,            !- X,Y,Z Vertex 1 {m}
  6.46578440716979, 0, 0,                 !- X,Y,Z Vertex 2 {m}
  6.46578440716979, -11.1027688143396, 0, !- X,Y,Z Vertex 3 {m}
  6.46578440716979, -11.1027688143396, 2.4384; !- X,Y,Z Vertex 4 {m}

OS:Surface,
  {541850aa-fb27-49d4-b90b-7c7d3d8f31a9}, !- Handle
  Surface 14,                             !- Name
  Wall,                                   !- Surface Type
  ,                                       !- Construction Name
  {4e349869-4245-4a5d-b8cb-7f9ecb2e98c0}, !- Space Name
  Outdoors,                               !- Outside Boundary Condition
  ,                                       !- Outside Boundary Condition Object
  SunExposed,                             !- Sun Exposure
  WindExposed,                            !- Wind Exposure
  ,                                       !- View Factor to Ground
  ,                                       !- Number of Vertices
  12.9315688143396, 1.8288, 2.4384,       !- X,Y,Z Vertex 1 {m}
  12.9315688143396, 1.8288, 0,            !- X,Y,Z Vertex 2 {m}
  6.46578440716979, 1.8288, 0,            !- X,Y,Z Vertex 3 {m}
  6.46578440716979, 1.8288, 2.4384;       !- X,Y,Z Vertex 4 {m}

OS:Surface,
  {438f9567-adbd-4dad-865a-5320aa8a05af}, !- Handle
  Surface 15,                             !- Name
  Wall,                                   !- Surface Type
  ,                                       !- Construction Name