!- NOTE: Auto-generated from /test/osw_files/SFA_4units_1story_FB_UA_3Beds_2Baths_Denver.osw

OS:Version,
  {b9174c4f-52a2-4f92-af70-7d08b0f412d2}, !- Handle
  2.4.0;                                  !- Version Identifier

OS:Building,
  {bf305633-c5a1-4881-9edf-ca5e1a8e1274}, !- Handle
  Building,                               !- Name
  ,                                       !- Building Sector Type
  ,                                       !- North Axis {deg}
  ,                                       !- Nominal Floor to Floor Height {m}
  ,                                       !- Space Type Name
  ,                                       !- Default Construction Set Name
  ,                                       !- Default Schedule Set Name
  2,                                      !- Standards Number of Stories
  1,                                      !- Standards Number of Above Ground Stories
  singlefamilyttached,                    !- Standards Building Type
  4;                                      !- Standards Number of Living Units

OS:YearDescription,
  {513d8dda-86cb-442a-b01c-1f7f0e0ac70e}; !- Handle

OS:SimulationControl,
  {2c487a4c-bac9-4ac5-b669-1e49d9da7c2b}, !- Handle
  ,                                       !- Do Zone Sizing Calculation
  ,                                       !- Do System Sizing Calculation
  ,                                       !- Do Plant Sizing Calculation
  No,                                     !- Run Simulation for Sizing Periods
  ;                                       !- Run Simulation for Weather File Run Periods

OS:Timestep,
  {4ebc9f1e-4707-402e-9844-67eb1ffbd522}, !- Handle
  6;                                      !- Number of Timesteps per Hour

OS:RunPeriod,
  {28df894d-6af9-4fb8-8f56-df1753344aa3}, !- Handle
  Run Period,                             !- Name
  1,                                      !- Begin Month
  1,                                      !- Begin Day of Month
  12,                                     !- End Month
  31,                                     !- End Day of Month
  ,                                       !- Use Weather File Holidays and Special Days
  ,                                       !- Use Weather File Daylight Saving Period
  ,                                       !- Apply Weekend Holiday Rule
  ,                                       !- Use Weather File Rain Indicators
  ,                                       !- Use Weather File Snow Indicators
  ;                                       !- Number of Times Runperiod to be Repeated

OS:Sizing:Parameters,
  {dde5af6f-7923-4600-a28a-7556673a0266}, !- Handle
  1.0,                                    !- Heating Sizing Factor
  1.0;                                    !- Cooling Sizing Factor

OS:ShadowCalculation,
  {ca758bea-4416-4626-9bba-3d8795c79bd6}, !- Handle
  20,                                     !- Calculation Frequency
  200;                                    !- Maximum Figures in Shadow Overlap Calculations

OS:SurfaceConvectionAlgorithm:Inside,
  {aaabfc36-718a-4ab0-b622-f186ebb45230}, !- Handle
  TARP;                                   !- Algorithm

OS:SurfaceConvectionAlgorithm:Outside,
  {9a0a9f6f-4bbd-4b12-a121-9492a1fcd7d6}, !- Handle
  DOE-2;                                  !- Algorithm

OS:HeatBalanceAlgorithm,
  {9d93e563-e1e0-46d7-9e39-d1c8aceb7212}, !- Handle
  ConductionTransferFunction,             !- Algorithm
  200;                                    !- Surface Temperature Upper Limit {C}

OS:ZoneCapacitanceMultiplier:ResearchSpecial,
  {6bfced16-b16f-47f6-8223-f7e267d75d19}, !- Handle
  ,                                       !- Temperature Capacity Multiplier
  15,                                     !- Humidity Capacity Multiplier
  ;                                       !- Carbon Dioxide Capacity Multiplier

OS:ThermalZone,
  {12ba2e42-816c-47b5-a7d7-18fd201794a9}, !- Handle
  living zone,                            !- Name
  ,                                       !- Multiplier
  ,                                       !- Ceiling Height {m}
  ,                                       !- Volume {m3}
  ,                                       !- Floor Area {m2}
  ,                                       !- Zone Inside Convection Algorithm
  ,                                       !- Zone Outside Convection Algorithm
  ,                                       !- Zone Conditioning Equipment List Name
  {eb981204-e14c-43c1-8462-00223c3d18c8}, !- Zone Air Inlet Port List
  {d33ba284-799a-4727-888b-d5833d6ad320}, !- Zone Air Exhaust Port List
  {4cae5b2b-76cc-413b-888c-38ceec658e1b}, !- Zone Air Node Name
  ,                                       !- Zone Return Air Node Name
  ,                                       !- Primary Daylighting Control Name
  ,                                       !- Fraction of Zone Controlled by Primary Daylighting Control
  ,                                       !- Secondary Daylighting Control Name
  ,                                       !- Fraction of Zone Controlled by Secondary Daylighting Control
  ,                                       !- Illuminance Map Name
  ,                                       !- Group Rendering Name
  ,                                       !- Thermostat Name
  No;                                     !- Use Ideal Air Loads

OS:Node,
  {1209c0a3-8d15-4af8-a3dd-6fa90dbaa319}, !- Handle
  Node 1,                                 !- Name
  {4cae5b2b-76cc-413b-888c-38ceec658e1b}, !- Inlet Port
  ;                                       !- Outlet Port

OS:Connection,
  {4cae5b2b-76cc-413b-888c-38ceec658e1b}, !- Handle
  {5bc9f9f9-60d8-455e-a365-0da1bc2bccda}, !- Name
  {12ba2e42-816c-47b5-a7d7-18fd201794a9}, !- Source Object
  11,                                     !- Outlet Port
  {1209c0a3-8d15-4af8-a3dd-6fa90dbaa319}, !- Target Object
  2;                                      !- Inlet Port

OS:PortList,
  {eb981204-e14c-43c1-8462-00223c3d18c8}, !- Handle
  {3a5853cf-2e51-4f7a-90f9-9cdda71708ad}, !- Name
  {12ba2e42-816c-47b5-a7d7-18fd201794a9}; !- HVAC Component

OS:PortList,
  {d33ba284-799a-4727-888b-d5833d6ad320}, !- Handle
  {6c53f442-80d6-459a-bb58-07b9570903c8}, !- Name
  {12ba2e42-816c-47b5-a7d7-18fd201794a9}; !- HVAC Component

OS:Sizing:Zone,
  {cf1fbd63-2c90-4652-bf4e-6506ef4b4e50}, !- Handle
  {12ba2e42-816c-47b5-a7d7-18fd201794a9}, !- Zone or ZoneList Name
  SupplyAirTemperature,                   !- Zone Cooling Design Supply Air Temperature Input Method
  14,                                     !- Zone Cooling Design Supply Air Temperature {C}
  11.11,                                  !- Zone Cooling Design Supply Air Temperature Difference {deltaC}
  SupplyAirTemperature,                   !- Zone Heating Design Supply Air Temperature Input Method
  40,                                     !- Zone Heating Design Supply Air Temperature {C}
  11.11,                                  !- Zone Heating Design Supply Air Temperature Difference {deltaC}
  0.0085,                                 !- Zone Cooling Design Supply Air Humidity Ratio {kg-H2O/kg-air}
  0.008,                                  !- Zone Heating Design Supply Air Humidity Ratio {kg-H2O/kg-air}
  ,                                       !- Zone Heating Sizing Factor
  ,                                       !- Zone Cooling Sizing Factor
  DesignDay,                              !- Cooling Design Air Flow Method
  ,                                       !- Cooling Design Air Flow Rate {m3/s}
  ,                                       !- Cooling Minimum Air Flow per Zone Floor Area {m3/s-m2}
  ,                                       !- Cooling Minimum Air Flow {m3/s}
  ,                                       !- Cooling Minimum Air Flow Fraction
  DesignDay,                              !- Heating Design Air Flow Method
  ,                                       !- Heating Design Air Flow Rate {m3/s}
  ,                                       !- Heating Maximum Air Flow per Zone Floor Area {m3/s-m2}
  ,                                       !- Heating Maximum Air Flow {m3/s}
  ,                                       !- Heating Maximum Air Flow Fraction
  ,                                       !- Design Zone Air Distribution Effectiveness in Cooling Mode
  ,                                       !- Design Zone Air Distribution Effectiveness in Heating Mode
  No,                                     !- Account for Dedicated Outdoor Air System
  NeutralSupplyAir,                       !- Dedicated Outdoor Air System Control Strategy
  autosize,                               !- Dedicated Outdoor Air Low Setpoint Temperature for Design {C}
  autosize;                               !- Dedicated Outdoor Air High Setpoint Temperature for Design {C}

OS:ZoneHVAC:EquipmentList,
  {4349d3ea-7aff-4ff5-8e95-e3e8d99a615f}, !- Handle
  Zone HVAC Equipment List 1,             !- Name
  {12ba2e42-816c-47b5-a7d7-18fd201794a9}; !- Thermal Zone

OS:Space,
  {4f0cef4c-ceb1-4a50-8b6d-24814488a4e1}, !- Handle
  living space,                           !- Name
  ,                                       !- Space Type Name
  ,                                       !- Default Construction Set Name
  ,                                       !- Default Schedule Set Name
  ,                                       !- Direction of Relative North {deg}
  ,                                       !- X Origin {m}
  ,                                       !- Y Origin {m}
  ,                                       !- Z Origin {m}
  ,                                       !- Building Story Name
  {12ba2e42-816c-47b5-a7d7-18fd201794a9}, !- Thermal Zone Name
  ,                                       !- Part of Total Floor Area
  ,                                       !- Design Specification Outdoor Air Object Name
  {7ab78323-54e0-44a4-8844-ce54f5e0f894}; !- Building Unit Name

OS:Surface,
  {9efc9221-76ff-48bf-ac8f-62c1917cc9b6}, !- Handle
  Surface 1,                              !- Name
  Floor,                                  !- Surface Type
  ,                                       !- Construction Name
  {4f0cef4c-ceb1-4a50-8b6d-24814488a4e1}, !- Space Name
  Surface,                                !- Outside Boundary Condition
  {110cf00c-8ac7-4b8c-8452-79783f7d3551}, !- Outside Boundary Condition Object
  NoSun,                                  !- Sun Exposure
  NoWind,                                 !- Wind Exposure
  ,                                       !- View Factor to Ground
  ,                                       !- Number of Vertices
  0, -9.144, 0,                           !- X,Y,Z Vertex 1 {m}
  0, 0, 0,                                !- X,Y,Z Vertex 2 {m}
  4.572, 0, 0,                            !- X,Y,Z Vertex 3 {m}
  4.572, -9.144, 0;                       !- X,Y,Z Vertex 4 {m}

OS:Surface,
  {cc233b79-198c-49a9-bb73-c16ae46d1c9d}, !- Handle
  Surface 2,                              !- Name
  Wall,                                   !- Surface Type
  ,                                       !- Construction Name
  {4f0cef4c-ceb1-4a50-8b6d-24814488a4e1}, !- Space Name
  Outdoors,                               !- Outside Boundary Condition
  ,                                       !- Outside Boundary Condition Object
  SunExposed,                             !- Sun Exposure
  WindExposed,                            !- Wind Exposure
  ,                                       !- View Factor to Ground
  ,                                       !- Number of Vertices
  0, 0, 2.4384,                           !- X,Y,Z Vertex 1 {m}
  0, 0, 0,                                !- X,Y,Z Vertex 2 {m}
  0, -9.144, 0,                           !- X,Y,Z Vertex 3 {m}
  0, -9.144, 2.4384;                      !- X,Y,Z Vertex 4 {m}

OS:Surface,
  {bae59526-3690-40e9-a78a-62fcef723c20}, !- Handle
  Surface 3,                              !- Name
  Wall,                                   !- Surface Type
  ,                                       !- Construction Name
  {4f0cef4c-ceb1-4a50-8b6d-24814488a4e1}, !- Space Name
  Outdoors,                               !- Outside Boundary Condition
  ,                                       !- Outside Boundary Condition Object
  SunExposed,                             !- Sun Exposure
  WindExposed,                            !- Wind Exposure
  ,                                       !- View Factor to Ground
  ,                                       !- Number of Vertices
  4.572, 0, 2.4384,                       !- X,Y,Z Vertex 1 {m}
  4.572, 0, 0,                            !- X,Y,Z Vertex 2 {m}
  0, 0, 0,                                !- X,Y,Z Vertex 3 {m}
  0, 0, 2.4384;                           !- X,Y,Z Vertex 4 {m}

OS:Surface,
  {302753e6-47f3-47ef-8550-2a9680e5ad90}, !- Handle
  Surface 4,                              !- Name
  Wall,                                   !- Surface Type
  ,                                       !- Construction Name
  {4f0cef4c-ceb1-4a50-8b6d-24814488a4e1}, !- Space Name
  Surface,                                !- Outside Boundary Condition
  {f52e1d69-26c7-4b0c-b328-537b339f66bc}, !- Outside Boundary Condition Object
  NoSun,                                  !- Sun Exposure
  NoWind,                                 !- Wind Exposure
  ,                                       !- View Factor to Ground
  ,                                       !- Number of Vertices
  4.572, -9.144, 2.4384,                  !- X,Y,Z Vertex 1 {m}
  4.572, -9.144, 0,                       !- X,Y,Z Vertex 2 {m}
  4.572, 0, 0,                            !- X,Y,Z Vertex 3 {m}
  4.572, 0, 2.4384;                       !- X,Y,Z Vertex 4 {m}

OS:Surface,
  {04849a54-d9ee-4009-a603-94df4aaea51f}, !- Handle
  Surface 5,                              !- Name
  Wall,                                   !- Surface Type
  ,                                       !- Construction Name
  {4f0cef4c-ceb1-4a50-8b6d-24814488a4e1}, !- Space Name
  Outdoors,                               !- Outside Boundary Condition
  ,                                       !- Outside Boundary Condition Object
  SunExposed,                             !- Sun Exposure
  WindExposed,                            !- Wind Exposure
  ,                                       !- View Factor to Ground
  ,                                       !- Number of Vertices
  0, -9.144, 2.4384,                      !- X,Y,Z Vertex 1 {m}
  0, -9.144, 0,                           !- X,Y,Z Vertex 2 {m}
  4.572, -9.144, 0,                       !- X,Y,Z Vertex 3 {m}
  4.572, -9.144, 2.4384;                  !- X,Y,Z Vertex 4 {m}

OS:Surface,
  {b22fc6ec-d74e-4413-83b1-1b5f2d642b24}, !- Handle
  Surface 6,                              !- Name
  RoofCeiling,                            !- Surface Type
  ,                                       !- Construction Name
  {4f0cef4c-ceb1-4a50-8b6d-24814488a4e1}, !- Space Name
  Surface,                                !- Outside Boundary Condition
  {e6944b0e-afc1-42dc-8428-b0d3189382e4}, !- Outside Boundary Condition Object
  NoSun,                                  !- Sun Exposure
  NoWind,                                 !- Wind Exposure
  ,                                       !- View Factor to Ground
  ,                                       !- Number of Vertices
  4.572, -9.144, 2.4384,                  !- X,Y,Z Vertex 1 {m}
  4.572, 0, 2.4384,                       !- X,Y,Z Vertex 2 {m}
  0, 0, 2.4384,                           !- X,Y,Z Vertex 3 {m}
  0, -9.144, 2.4384;                      !- X,Y,Z Vertex 4 {m}

OS:Surface,
  {e6944b0e-afc1-42dc-8428-b0d3189382e4}, !- Handle
  Surface 7,                              !- Name
  Floor,                                  !- Surface Type
  ,                                       !- Construction Name
  {386ad375-8001-4337-b4c6-9013459fe60f}, !- Space Name
  Surface,                                !- Outside Boundary Condition
  {b22fc6ec-d74e-4413-83b1-1b5f2d642b24}, !- Outside Boundary Condition Object
  NoSun,                                  !- Sun Exposure
  NoWind,                                 !- Wind Exposure
  ,                                       !- View Factor to Ground
  ,                                       !- Number of Vertices
  0, -9.144, 2.4384,                      !- X,Y,Z Vertex 1 {m}
  0, 0, 2.4384,                           !- X,Y,Z Vertex 2 {m}
  4.572, 0, 2.4384,                       !- X,Y,Z Vertex 3 {m}
  4.572, -9.144, 2.4384;                  !- X,Y,Z Vertex 4 {m}

OS:Surface,
  {5ecf8a28-e2f6-4f40-a75a-10e46eab98f2}, !- Handle
  Surface 8,                              !- Name
  RoofCeiling,                            !- Surface Type
  ,                                       !- Construction Name
  {386ad375-8001-4337-b4c6-9013459fe60f}, !- Space Name
  Outdoors,                               !- Outside Boundary Condition
  ,                                       !- Outside Boundary Condition Object
  SunExposed,                             !- Sun Exposure
  WindExposed,                            !- Wind Exposure
  ,                                       !- View Factor to Ground
  ,                                       !- Number of Vertices
  2.286, 0, 3.5814,                       !- X,Y,Z Vertex 1 {m}
  0, 0, 2.4384,                           !- X,Y,Z Vertex 2 {m}
  0, -9.144, 2.4384,                      !- X,Y,Z Vertex 3 {m}
  2.286, -9.144, 3.5814;                  !- X,Y,Z Vertex 4 {m}

OS:Surface,
  {61b787b2-7885-4895-a829-c1a9abeee65f}, !- Handle
  Surface 9,                              !- Name
  RoofCeiling,                            !- Surface Type
  ,                                       !- Construction Name
  {386ad375-8001-4337-b4c6-9013459fe60f}, !- Space Name
  Outdoors,                               !- Outside Boundary Condition
  ,                                       !- Outside Boundary Condition Object
  SunExposed,                             !- Sun Exposure
  WindExposed,                            !- Wind Exposure
  ,                                       !- View Factor to Ground
  ,                                       !- Number of Vertices
  2.286, -9.144, 3.5814,                  !- X,Y,Z Vertex 1 {m}
  4.572, -9.144, 2.4384,                  !- X,Y,Z Vertex 2 {m}
  4.572, 0, 2.4384,                       !- X,Y,Z Vertex 3 {m}
  2.286, 0, 3.5814;                       !- X,Y,Z Vertex 4 {m}

OS:Surface,
  {8e001baa-f1e8-4829-afdd-a2702c1ad93f}, !- Handle
  Surface 10,                             !- Name
  Wall,                                   !- Surface Type
  ,                                       !- Construction Name
  {386ad375-8001-4337-b4c6-9013459fe60f}, !- Space Name
  Outdoors,                               !- Outside Boundary Condition
  ,                                       !- Outside Boundary Condition Object
  SunExposed,                             !- Sun Exposure
  WindExposed,                            !- Wind Exposure
  ,                                       !- View Factor to Ground
  ,                                       !- Number of Vertices
  2.286, -9.144, 3.5814,                  !- X,Y,Z Vertex 1 {m}
  0, -9.144, 2.4384,                      !- X,Y,Z Vertex 2 {m}
  4.572, -9.144, 2.4384;                  !- X,Y,Z Vertex 3 {m}

OS:Surface,
  {4f0e9d6f-3d46-4a98-ae71-df6104fee201}, !- Handle
  Surface 11,                             !- Name
  Wall,                                   !- Surface Type
  ,                                       !- Construction Name
  {386ad375-8001-4337-b4c6-9013459fe60f}, !- Space Name
  Outdoors,                               !- Outside Boundary Condition
  ,                                       !- Outside Boundary Condition Object
  SunExposed,                             !- Sun Exposure
  WindExposed,                            !- Wind Exposure
  ,                                       !- View Factor to Ground
  ,                                       !- Number of Vertices
  2.286, 0, 3.5814,                       !- X,Y,Z Vertex 1 {m}
  4.572, 0, 2.4384,                       !- X,Y,Z Vertex 2 {m}
  0, 0, 2.4384;                           !- X,Y,Z Vertex 3 {m}

OS:ThermalZone,
  {43b6cac8-6315-4e58-889e-07a0b3b4297c}, !- Handle
  living zone|unit 2,                     !- Name
  ,                                       !- Multiplier
  ,                                       !- Ceiling Height {m}
  ,                                       !- Volume {m3}
  ,                                       !- Floor Area {m2}
  ,                                       !- Zone Inside Convection Algorithm
  ,                                       !- Zone Outside Convection Algorithm
  ,                                       !- Zone Conditioning Equipment List Name
  {48b78a98-54ab-48be-bf27-dbdf876e4d4d}, !- Zone Air Inlet Port List
  {5d54e26f-ee21-46b8-b66f-e8a574abd9f1}, !- Zone Air Exhaust Port List
  {11afb20e-c54e-463b-831b-d2eef14916f2}, !- Zone Air Node Name
  ,                                       !- Zone Return Air Node Name
  ,                                       !- Primary Daylighting Control Name
  ,                                       !- Fraction of Zone Controlled by Primary Daylighting Control
  ,                                       !- Secondary Daylighting Control Name
  ,                                       !- Fraction of Zone Controlled by Secondary Daylighting Control
  ,                                       !- Illuminance Map Name
  ,                                       !- Group Rendering Name
  ,                                       !- Thermostat Name
  No;                                     !- Use Ideal Air Loads

OS:Node,
  {999ebcaa-44e9-4c00-8108-40243649694a}, !- Handle
  Node 2,                                 !- Name
  {11afb20e-c54e-463b-831b-d2eef14916f2}, !- Inlet Port
  ;                                       !- Outlet Port

OS:Connection,
  {11afb20e-c54e-463b-831b-d2eef14916f2}, !- Handle
  {51f3a0eb-20a7-44a3-bcd5-cf086d2de10d}, !- Name
  {43b6cac8-6315-4e58-889e-07a0b3b4297c}, !- Source Object
  11,                                     !- Outlet Port
  {999ebcaa-44e9-4c00-8108-40243649694a}, !- Target Object
  2;                                      !- Inlet Port

OS:PortList,
  {48b78a98-54ab-48be-bf27-dbdf876e4d4d}, !- Handle
  {90266558-f9b9-403c-a611-f145882c1034}, !- Name
  {43b6cac8-6315-4e58-889e-07a0b3b4297c}; !- HVAC Component

OS:PortList,
  {5d54e26f-ee21-46b8-b66f-e8a574abd9f1}, !- Handle
  {5dc08d6b-f5c8-4b2e-b580-33b511c3a346}, !- Name
  {43b6cac8-6315-4e58-889e-07a0b3b4297c}; !- HVAC Component

OS:Sizing:Zone,
  {2633aa7e-bef0-4943-97be-34754e24b54c}, !- Handle
  {43b6cac8-6315-4e58-889e-07a0b3b4297c}, !- Zone or ZoneList Name
  SupplyAirTemperature,                   !- Zone Cooling Design Supply Air Temperature Input Method
  14,                                     !- Zone Cooling Design Supply Air Temperature {C}
  11.11,                                  !- Zone Cooling Design Supply Air Temperature Difference {deltaC}
  SupplyAirTemperature,                   !- Zone Heating Design Supply Air Temperature Input Method
  40,                                     !- Zone Heating Design Supply Air Temperature {C}
  11.11,                                  !- Zone Heating Design Supply Air Temperature Difference {deltaC}
  0.0085,                                 !- Zone Cooling Design Supply Air Humidity Ratio {kg-H2O/kg-air}
  0.008,                                  !- Zone Heating Design Supply Air Humidity Ratio {kg-H2O/kg-air}
  ,                                       !- Zone Heating Sizing Factor
  ,                                       !- Zone Cooling Sizing Factor
  DesignDay,                              !- Cooling Design Air Flow Method
  ,                                       !- Cooling Design Air Flow Rate {m3/s}
  ,                                       !- Cooling Minimum Air Flow per Zone Floor Area {m3/s-m2}
  ,                                       !- Cooling Minimum Air Flow {m3/s}
  ,                                       !- Cooling Minimum Air Flow Fraction
  DesignDay,                              !- Heating Design Air Flow Method
  ,                                       !- Heating Design Air Flow Rate {m3/s}
  ,                                       !- Heating Maximum Air Flow per Zone Floor Area {m3/s-m2}
  ,                                       !- Heating Maximum Air Flow {m3/s}
  ,                                       !- Heating Maximum Air Flow Fraction
  ,                                       !- Design Zone Air Distribution Effectiveness in Cooling Mode
  ,                                       !- Design Zone Air Distribution Effectiveness in Heating Mode
  No,                                     !- Account for Dedicated Outdoor Air System
  NeutralSupplyAir,                       !- Dedicated Outdoor Air System Control Strategy
  autosize,                               !- Dedicated Outdoor Air Low Setpoint Temperature for Design {C}
  autosize;                               !- Dedicated Outdoor Air High Setpoint Temperature for Design {C}

OS:ZoneHVAC:EquipmentList,
  {42889bed-299c-4780-a8ba-224fe009dcae}, !- Handle
  Zone HVAC Equipment List 2,             !- Name
  {43b6cac8-6315-4e58-889e-07a0b3b4297c}; !- Thermal Zone

OS:Space,
  {c60ffd3b-bb80-4bb6-a467-94f2d21f3372}, !- Handle
  living space|unit 2,                    !- Name
  ,                                       !- Space Type Name
  ,                                       !- Default Construction Set Name
  ,                                       !- Default Schedule Set Name
  -0,                                     !- Direction of Relative North {deg}
  0,                                      !- X Origin {m}
  0,                                      !- Y Origin {m}
  0,                                      !- Z Origin {m}
  ,                                       !- Building Story Name
  {43b6cac8-6315-4e58-889e-07a0b3b4297c}, !- Thermal Zone Name
  ,                                       !- Part of Total Floor Area
  ,                                       !- Design Specification Outdoor Air Object Name
  {9ba6c170-5ac3-482f-8023-a026a597d026}; !- Building Unit Name

OS:Surface,
  {d236c631-6c0c-46ca-a5ca-4bed32ad25f4}, !- Handle
  Surface 12,                             !- Name
  RoofCeiling,                            !- Surface Type
  ,                                       !- Construction Name
  {c60ffd3b-bb80-4bb6-a467-94f2d21f3372}, !- Space Name
  Surface,                                !- Outside Boundary Condition
  {a388ca99-bf3f-4d90-8d4e-e011b52ce75b}, !- Outside Boundary Condition Object
  NoSun,                                  !- Sun Exposure
  NoWind,                                 !- Wind Exposure
  ,                                       !- View Factor to Ground
  ,                                       !- Number of Vertices
  9.144, -9.144, 2.4384,                  !- X,Y,Z Vertex 1 {m}
  9.144, 0, 2.4384,                       !- X,Y,Z Vertex 2 {m}
  4.572, 0, 2.4384,                       !- X,Y,Z Vertex 3 {m}
  4.572, -9.144, 2.4384;                  !- X,Y,Z Vertex 4 {m}

OS:Surface,
  {eaed1cca-5532-4e88-8ee8-fa9236708a12}, !- Handle
  Surface 13,                             !- Name
  Wall,                                   !- Surface Type
  ,                                       !- Construction Name
  {c60ffd3b-bb80-4bb6-a467-94f2d21f3372}, !- Space Name
  Surface,                                !- Outside Boundary Condition
  {f309361f-66e6-4d1b-bbcf-861e62128228}, !- Outside Boundary Condition Object
  NoSun,                                  !- Sun Exposure
  NoWind,                                 !- Wind Exposure
  ,                                       !- View Factor to Ground
  ,                                       !- Number of Vertices
  9.144, -9.144, 2.4384,                  !- X,Y,Z Vertex 1 {m}
  9.144, -9.144, 0,                       !- X,Y,Z Vertex 2 {m}
  9.144, 0, 0,                            !- X,Y,Z Vertex 3 {m}
  9.144, 0, 2.4384;                       !- X,Y,Z Vertex 4 {m}

OS:Surface,
  {74c71644-34ca-491d-8c6a-d73edff2b8df}, !- Handle
  Surface 14,                             !- Name
  Floor,                                  !- Surface Type
  ,                                       !- Construction Name
  {c60ffd3b-bb80-4bb6-a467-94f2d21f3372}, !- Space Name
  Surface,                                !- Outside Boundary Condition
  {1d1bf370-8b49-4327-ad40-4496c298061e}, !- Outside Boundary Condition Object
  NoSun,                                  !- Sun Exposure
  NoWind,                                 !- Wind Exposure
  ,                                       !- View Factor to Ground
  ,                                       !- Number of Vertices
  4.572, -9.144, 0,                       !- X,Y,Z Vertex 1 {m}
  4.572, 0, 0,                            !- X,Y,Z Vertex 2 {m}
  9.144, 0, 0,                            !- X,Y,Z Vertex 3 {m}
  9.144, -9.144, 0;                       !- X,Y,Z Vertex 4 {m}

OS:Surface,
  {9b515971-db34-4f12-82b3-c27672ffd780}, !- Handle
  Surface 15,                             !- Name
  Wall,                                   !- Surface Type
  ,                                       !- Construction Name
  {c60ffd3b-bb80-4bb6-a467-94f2d21f3372}, !- Space Name
  Outdoors,                               !- Outside Boundary Condition
  ,                                       !- Outside Boundary Condition Object
  SunExposed,                             !- Sun Exposure
  WindExposed,                            !- Wind Exposure
  ,                                       !- View Factor to Ground
  ,                                       !- Number of Vertices
  9.144, 0, 2.4384,                       !- X,Y,Z Vertex 1 {m}
  9.144, 0, 0,                            !- X,Y,Z Vertex 2 {m}
  4.572, 0, 0,                            !- X,Y,Z Vertex 3 {m}