!- NOTE: Auto-generated from /test/osw_files/SFD_Multizone_2story_SL_UA_GRG_2Bed_2Bath_0Kitchen_Denver.osw

OS:Version,
  {fc003c06-618b-4051-9b37-6b6f71b12672}, !- Handle
  2.2.0;                                  !- Version Identifier

OS:Building,
  {bf305633-c5a1-4881-9edf-ca5e1a8e1274}, !- Handle
  Building,                               !- Name
  ,                                       !- Building Sector Type
  ,                                       !- North Axis {deg}
  ,                                       !- Nominal Floor to Floor Height {m}
  ,                                       !- Space Type Name
  ,                                       !- Default Construction Set Name
  ,                                       !- Default Schedule Set Name
  ,                                       !- Standards Number of Stories
  2,                                      !- Standards Number of Above Ground Stories
  singlefamilydetached;                   !- Standards Building Type

OS:YearDescription,
  {513d8dda-86cb-442a-b01c-1f7f0e0ac70e}; !- Handle

OS:SimulationControl,
  {2c487a4c-bac9-4ac5-b669-1e49d9da7c2b}, !- Handle
  ,                                       !- Do Zone Sizing Calculation
  ,                                       !- Do System Sizing Calculation
  ,                                       !- Do Plant Sizing Calculation
  No,                                     !- Run Simulation for Sizing Periods
  ;                                       !- Run Simulation for Weather File Run Periods

OS:Timestep,
  {4ebc9f1e-4707-402e-9844-67eb1ffbd522}, !- Handle
  6;                                      !- Number of Timesteps per Hour

OS:RunPeriod,
  {28df894d-6af9-4fb8-8f56-df1753344aa3}, !- Handle
  Run Period,                             !- Name
  1,                                      !- Begin Month
  1,                                      !- Begin Day of Month
  12,                                     !- End Month
  31,                                     !- End Day of Month
  ,                                       !- Use Weather File Holidays and Special Days
  ,                                       !- Use Weather File Daylight Saving Period
  ,                                       !- Apply Weekend Holiday Rule
  ,                                       !- Use Weather File Rain Indicators
  ,                                       !- Use Weather File Snow Indicators
  ;                                       !- Number of Times Runperiod to be Repeated

OS:Sizing:Parameters,
  {dde5af6f-7923-4600-a28a-7556673a0266}, !- Handle
  1.0,                                    !- Heating Sizing Factor
  1.0;                                    !- Cooling Sizing Factor

OS:ShadowCalculation,
  {ca758bea-4416-4626-9bba-3d8795c79bd6}, !- Handle
  20,                                     !- Calculation Frequency
  200;                                    !- Maximum Figures in Shadow Overlap Calculations

OS:SurfaceConvectionAlgorithm:Inside,
  {aaabfc36-718a-4ab0-b622-f186ebb45230}, !- Handle
  TARP;                                   !- Algorithm

OS:SurfaceConvectionAlgorithm:Outside,
  {9a0a9f6f-4bbd-4b12-a121-9492a1fcd7d6}, !- Handle
  DOE-2;                                  !- Algorithm

OS:HeatBalanceAlgorithm,
  {9d93e563-e1e0-46d7-9e39-d1c8aceb7212}, !- Handle
  ConductionTransferFunction,             !- Algorithm
  200;                                    !- Surface Temperature Upper Limit {C}

OS:ZoneCapacitanceMultiplier:ResearchSpecial,
  {6bfced16-b16f-47f6-8223-f7e267d75d19}, !- Handle
  ,                                       !- Temperature Capacity Multiplier
  15,                                     !- Humidity Capacity Multiplier
  ;                                       !- Carbon Dioxide Capacity Multiplier

OS:Space,
  {1cf7451f-2f74-4569-8c1f-e338209f3684}, !- Handle
  Space 2 - 1,                            !- Name
  {abdb99bd-3503-4a4e-a86b-5e0e1011d708}, !- Space Type Name
  ,                                       !- Default Construction Set Name
  ,                                       !- Default Schedule Set Name
  ,                                       !- Direction of Relative North {deg}
  ,                                       !- X Origin {m}
  ,                                       !- Y Origin {m}
  ,                                       !- Z Origin {m}
  ,                                       !- Building Story Name
  {02ae5e09-2691-489f-9d8a-83f7465f3b21}, !- Thermal Zone Name
  ,                                       !- Part of Total Floor Area
  ,                                       !- Design Specification Outdoor Air Object Name
  {65f3b8aa-8950-4690-989d-f82a37d953bc}; !- Building Unit Name

OS:SpaceType,
  {abdb99bd-3503-4a4e-a86b-5e0e1011d708}, !- Handle
  112,                                    !- Name
  ,                                       !- Default Construction Set Name
  ,                                       !- Default Schedule Set Name
  ,                                       !- Group Rendering Name
  ,                                       !- Design Specification Outdoor Air Object Name
  ,                                       !- Standards Building Type
  living;                                 !- Standards Space Type

OS:Surface,
  {26f0c4e9-bbb4-49d7-943e-33dea762f0d0}, !- Handle
   42,                                    !- Name
  Wall,                                   !- Surface Type
  ,                                       !- Construction Name
  {1cf7451f-2f74-4569-8c1f-e338209f3684}, !- Space Name
  Outdoors,                               !- Outside Boundary Condition
  ,                                       !- Outside Boundary Condition Object
  SunExposed,                             !- Sun Exposure
  WindExposed,                            !- Wind Exposure
  ,                                       !- View Factor to Ground
  ,                                       !- Number of Vertices
  20, 36, 6,                              !- X,Y,Z Vertex 1 {m}
  20, 36, 3,                              !- X,Y,Z Vertex 2 {m}
  20, 58, 3,                              !- X,Y,Z Vertex 3 {m}
  20, 58, 6;                              !- X,Y,Z Vertex 4 {m}

OS:Surface,
  {1789ebef-5adb-4e54-badd-f55c2600bc68}, !- Handle
   41,                                    !- Name
  Wall,                                   !- Surface Type
  ,                                       !- Construction Name
  {1cf7451f-2f74-4569-8c1f-e338209f3684}, !- Space Name
  Outdoors,                               !- Outside Boundary Condition
  ,                                       !- Outside Boundary Condition Object
  SunExposed,                             !- Sun Exposure
  WindExposed,                            !- Wind Exposure
  ,                                       !- View Factor to Ground
  ,                                       !- Number of Vertices
  20, 58, 6,                              !- X,Y,Z Vertex 1 {m}
  20, 58, 3,                              !- X,Y,Z Vertex 2 {m}
  -50, 58, 3,                             !- X,Y,Z Vertex 3 {m}
  -50, 58, 6;                             !- X,Y,Z Vertex 4 {m}

OS:Surface,
  {a5624874-3946-43a6-b5ec-46271997e651}, !- Handle
   40,                                    !- Name
  Wall,                                   !- Surface Type
  ,                                       !- Construction Name
  {1cf7451f-2f74-4569-8c1f-e338209f3684}, !- Space Name
  Surface,                                !- Outside Boundary Condition
  {556a2060-c51d-4ac9-b31b-ad18dc3ac750}, !- Outside Boundary Condition Object
  NoSun,                                  !- Sun Exposure
  NoWind,                                 !- Wind Exposure
  ,                                       !- View Factor to Ground
  ,                                       !- Number of Vertices
  -50, 58, 6,                             !- X,Y,Z Vertex 1 {m}
  -50, 58, 3,                             !- X,Y,Z Vertex 2 {m}
  -50, 36, 3,                             !- X,Y,Z Vertex 3 {m}
  -50, 36, 6;                             !- X,Y,Z Vertex 4 {m}

OS:Surface,
  {6a549811-7a3f-45a3-b787-e3c419a33f90}, !- Handle
   39,                                    !- Name
  Wall,                                   !- Surface Type
  ,                                       !- Construction Name
  {1cf7451f-2f74-4569-8c1f-e338209f3684}, !- Space Name
  Outdoors,                               !- Outside Boundary Condition
  ,                                       !- Outside Boundary Condition Object
  SunExposed,                             !- Sun Exposure
  WindExposed,                            !- Wind Exposure
  ,                                       !- View Factor to Ground
  ,                                       !- Number of Vertices
  -50, 36, 6,                             !- X,Y,Z Vertex 1 {m}
  -50, 36, 3,                             !- X,Y,Z Vertex 2 {m}
  20, 36, 3,                              !- X,Y,Z Vertex 3 {m}
  20, 36, 6;                              !- X,Y,Z Vertex 4 {m}

OS:Surface,
  {e2c197f5-b6f0-4167-8260-21f38d9da305}, !- Handle
   38,                                    !- Name
  RoofCeiling,                            !- Surface Type
  ,                                       !- Construction Name
  {1cf7451f-2f74-4569-8c1f-e338209f3684}, !- Space Name
  Surface,                                !- Outside Boundary Condition
  {fdcb88d9-059d-4f2a-9a41-276a44299ab5}, !- Outside Boundary Condition Object
  NoSun,                                  !- Sun Exposure
  NoWind,                                 !- Wind Exposure
  ,                                       !- View Factor to Ground
  ,                                       !- Number of Vertices
  20, 36, 6,                              !- X,Y,Z Vertex 1 {m}
  20, 58, 6,                              !- X,Y,Z Vertex 2 {m}
  -50, 58, 6,                             !- X,Y,Z Vertex 3 {m}
  -50, 36, 6;                             !- X,Y,Z Vertex 4 {m}

OS:Surface,
  {a80a9a47-c3e2-44a2-a683-9e99d3c41657}, !- Handle
   37,                                    !- Name
  Floor,                                  !- Surface Type
  ,                                       !- Construction Name
  {1cf7451f-2f74-4569-8c1f-e338209f3684}, !- Space Name
  Surface,                                !- Outside Boundary Condition
  {98fa5296-6468-4786-aa31-4816ccde6780}, !- Outside Boundary Condition Object
  NoSun,                                  !- Sun Exposure
  NoWind,                                 !- Wind Exposure
  ,                                       !- View Factor to Ground
  ,                                       !- Number of Vertices
  20, 58, 3,                              !- X,Y,Z Vertex 1 {m}
  20, 36, 3,                              !- X,Y,Z Vertex 2 {m}
  6, 36, 3,                               !- X,Y,Z Vertex 3 {m}
  6, 58, 3;                               !- X,Y,Z Vertex 4 {m}

OS:Space,
  {4a68dd34-4c04-4135-905d-ab73c6cf9ef0}, !- Handle
  Space 1 - 5,                            !- Name
  {6d8710e1-967f-4c8d-b18c-2aca5cc5eba3}, !- Space Type Name
  ,                                       !- Default Construction Set Name
  ,                                       !- Default Schedule Set Name
  ,                                       !- Direction of Relative North {deg}
  ,                                       !- X Origin {m}
  ,                                       !- Y Origin {m}
  ,                                       !- Z Origin {m}
  ,                                       !- Building Story Name
  {b87ac4cf-d7b7-45ed-a8c8-fcece20a5029}, !- Thermal Zone Name
  ,                                       !- Part of Total Floor Area
  ,                                       !- Design Specification Outdoor Air Object Name
  {65f3b8aa-8950-4690-989d-f82a37d953bc}; !- Building Unit Name

OS:SpaceType,
  {6d8710e1-967f-4c8d-b18c-2aca5cc5eba3}, !- Handle
  115,                                    !- Name
  ,                                       !- Default Construction Set Name
  ,                                       !- Default Schedule Set Name
  ,                                       !- Group Rendering Name
  ,                                       !- Design Specification Outdoor Air Object Name
  ,                                       !- Standards Building Type
  bathroom;                               !- Standards Space Type

OS:Surface,
  {c5732ec3-a0cb-410f-a804-2361c24dde04}, !- Handle
   26,                                    !- Name
  RoofCeiling,                            !- Surface Type
  ,                                       !- Construction Name
  {4a68dd34-4c04-4135-905d-ab73c6cf9ef0}, !- Space Name
  Surface,                                !- Outside Boundary Condition
  {c94b42c6-6e85-4eed-aad1-f6fdf25122bd}, !- Outside Boundary Condition Object
  NoSun,                                  !- Sun Exposure
  NoWind,                                 !- Wind Exposure
  ,                                       !- View Factor to Ground
  ,                                       !- Number of Vertices
  -54, 42, 3,                             !- X,Y,Z Vertex 1 {m}
  -68, 42, 3,                             !- X,Y,Z Vertex 2 {m}
  -68, 36, 3,                             !- X,Y,Z Vertex 3 {m}
  -54, 36, 3;                             !- X,Y,Z Vertex 4 {m}

OS:Surface,
  {284bcc8f-c609-427a-bd9f-e9cc50634bd9}, !- Handle
   30,                                    !- Name
  Wall,                                   !- Surface Type
  ,                                       !- Construction Name
  {4a68dd34-4c04-4135-905d-ab73c6cf9ef0}, !- Space Name
  Surface,                                !- Outside Boundary Condition
  {7f3d6670-8114-4e4a-b15b-ff47299f2279}, !- Outside Boundary Condition Object
  NoSun,                                  !- Sun Exposure
  NoWind,                                 !- Wind Exposure
  ,                                       !- View Factor to Ground
  ,                                       !- Number of Vertices
  -54, 36, 3,                             !- X,Y,Z Vertex 1 {m}
  -54, 36, 0,                             !- X,Y,Z Vertex 2 {m}
  -54, 42, 0,                             !- X,Y,Z Vertex 3 {m}
  -54, 42, 3;                             !- X,Y,Z Vertex 4 {m}

OS:Surface,
  {7251acd7-a452-476d-8740-ab8f1a49a3d0}, !- Handle
   29,                                    !- Name
  Wall,                                   !- Surface Type
  ,                                       !- Construction Name
  {4a68dd34-4c04-4135-905d-ab73c6cf9ef0}, !- Space Name
  Surface,                                !- Outside Boundary Condition
  {3dbf1b25-2878-4ecc-a305-625832ca77c9}, !- Outside Boundary Condition Object
  NoSun,                                  !- Sun Exposure
  NoWind,                                 !- Wind Exposure
  ,                                       !- View Factor to Ground
  ,                                       !- Number of Vertices
  -54, 42, 3,                             !- X,Y,Z Vertex 1 {m}
  -54, 42, 0,                             !- X,Y,Z Vertex 2 {m}
  -68, 42, 0,                             !- X,Y,Z Vertex 3 {m}
  -68, 42, 3;                             !- X,Y,Z Vertex 4 {m}

OS:Surface,
  {41ae7989-ca68-451c-9b7f-3f7fd6647a2a}, !- Handle
   27,                                    !- Name
  Wall,                                   !- Surface Type
  ,                                       !- Construction Name
  {4a68dd34-4c04-4135-905d-ab73c6cf9ef0}, !- Space Name
  Outdoors,                               !- Outside Boundary Condition
  ,                                       !- Outside Boundary Condition Object
  SunExposed,                             !- Sun Exposure
  WindExposed,                            !- Wind Exposure
  ,                                       !- View Factor to Ground
  ,                                       !- Number of Vertices
  -68, 36, 3,                             !- X,Y,Z Vertex 1 {m}
  -68, 36, 0,                             !- X,Y,Z Vertex 2 {m}
  -54, 36, 0,                             !- X,Y,Z Vertex 3 {m}
  -54, 36, 3;                             !- X,Y,Z Vertex 4 {m}

OS:Surface,
  {c9ad888a-5358-4b2b-a2db-230828f1a6b2}, !- Handle
   28,                                    !- Name
  Wall,                                   !- Surface Type
  ,                                       !- Construction Name
  {4a68dd34-4c04-4135-905d-ab73c6cf9ef0}, !- Space Name
  Outdoors,                               !- Outside Boundary Condition
  ,                                       !- Outside Boundary Condition Object
  SunExposed,                             !- Sun Exposure
  WindExposed,                            !- Wind Exposure
  ,                                       !- View Factor to Ground
  ,                                       !- Number of Vertices
  -68, 42, 3,                             !- X,Y,Z Vertex 1 {m}
  -68, 42, 0,                             !- X,Y,Z Vertex 2 {m}
  -68, 36, 0,                             !- X,Y,Z Vertex 3 {m}
  -68, 36, 3;                             !- X,Y,Z Vertex 4 {m}

OS:Surface,
  {773f8bcc-9feb-4d15-98fa-eb2ed6fb4de4}, !- Handle
   25,                                    !- Name
  Floor,                                  !- Surface Type
  ,                                       !- Construction Name
  {4a68dd34-4c04-4135-905d-ab73c6cf9ef0}, !- Space Name
  Ground,                                 !- Outside Boundary Condition
  ,                                       !- Outside Boundary Condition Object
  NoSun,                                  !- Sun Exposure
  NoWind,                                 !- Wind Exposure
  ,                                       !- View Factor to Ground
  ,                                       !- Number of Vertices
  -54, 36, 0,                             !- X,Y,Z Vertex 1 {m}
  -68, 36, 0,                             !- X,Y,Z Vertex 2 {m}
  -68, 42, 0,                             !- X,Y,Z Vertex 3 {m}
  -54, 42, 0;                             !- X,Y,Z Vertex 4 {m}

OS:Space,
  {5d5625ee-e5cd-4971-bc3d-e6a53bb635a8}, !- Handle
  Space 3 - 1,                            !- Name
  {cfb995c9-b6b0-4ada-b0c2-84270b167ad7}, !- Space Type Name
  ,                                       !- Default Construction Set Name
  ,                                       !- Default Schedule Set Name
  ,                                       !- Direction of Relative North {deg}
  ,                                       !- X Origin {m}
  ,                                       !- Y Origin {m}
  ,                                       !- Z Origin {m}
  ,                                       !- Building Story Name
  {e9b03d66-ce99-4e49-a315-185f2e4e21b4}, !- Thermal Zone Name
  ,                                       !- Part of Total Floor Area
  ,                                       !- Design Specification Outdoor Air Object Name
  {65f3b8aa-8950-4690-989d-f82a37d953bc}; !- Building Unit Name

OS:SpaceType,
  {cfb995c9-b6b0-4ada-b0c2-84270b167ad7}, !- Handle
  117,                                    !- Name
  ,                                       !- Default Construction Set Name
  ,                                       !- Default Schedule Set Name
  ,                                       !- Group Rendering Name
  ,                                       !- Design Specification Outdoor Air Object Name
  ,                                       !- Standards Building Type
  attic;                                  !- Standards Space Type

OS:Surface,
  {20b81555-f6fb-4ccc-bdb9-a6f530d97ee5}, !- Handle
   64,                                    !- Name
  Wall,                                   !- Surface Type
  ,                                       !- Construction Name
  {5d5625ee-e5cd-4971-bc3d-e6a53bb635a8}, !- Space Name
  Outdoors,                               !- Outside Boundary Condition
  ,                                       !- Outside Boundary Condition Object
  SunExposed,                             !- Sun Exposure
  WindExposed,                            !- Wind Exposure
  ,                                       !- View Factor to Ground
  ,                                       !- Number of Vertices
  20, 58, 9,                              !- X,Y,Z Vertex 1 {m}
  20, 58, 6,                              !- X,Y,Z Vertex 2 {m}
  -68, 58, 6,                             !- X,Y,Z Vertex 3 {m}
  -68, 58, 9;                             !- X,Y,Z Vertex 4 {m}

OS:Surface,
  {7d899df8-ac61-4ae8-8372-14fb5c0397d3}, !- Handle
   65,                                    !- Name
  Wall,                                   !- Surface Type
  ,                                       !- Construction Name
  {5d5625ee-e5cd-4971-bc3d-e6a53bb635a8}, !- Space Name
  Outdoors,                               !- Outside Boundary Condition
  ,                                       !- Outside Boundary Condition Object
  SunExposed,                             !- Sun Exposure
  WindExposed,                            !- Wind Exposure
  ,                                       !- View Factor to Ground
  ,                                       !- Number of Vertices
  20, 36, 9,                              !- X,Y,Z Vertex 1 {m}
  20, 36, 6,                              !- X,Y,Z Vertex 2 {m}
  20, 58, 6,                              !- X,Y,Z Vertex 3 {m}
  20, 58, 9;                              !- X,Y,Z Vertex 4 {m}

OS:Surface,
  {f637df09-aa88-476f-bdcb-f7a63e6f7570}, !- Handle
   66,                                    !- Name
  Wall,                                   !- Surface Type
  ,                                       !- Construction Name
  {5d5625ee-e5cd-4971-bc3d-e6a53bb635a8}, !- Space Name
  Outdoors,                               !- Outside Boundary Condition
  ,                                       !- Outside Boundary Condition Object
  SunExposed,                             !- Sun Exposure
  WindExposed,                            !- Wind Exposure
  ,                                       !- View Factor to Ground
  ,                                       !- Number of Vertices
  -68, 36, 9,                             !- X,Y,Z Vertex 1 {m}
  -68, 36, 6,                             !- X,Y,Z Vertex 2 {m}
  20, 36, 6,                              !- X,Y,Z Vertex 3 {m}
  20, 36, 9;                              !- X,Y,Z Vertex 4 {m}

OS:Surface,
  {efb37cba-01ac-43a3-9f78-61241f091df9}, !- Handle
   67,                                    !- Name
  Wall,                                   !- Surface Type
  ,                                       !- Construction Name
  {5d5625ee-e5cd-4971-bc3d-e6a53bb635a8}, !- Space Name
  Outdoors,                               !- Outside Boundary Condition
  ,                                       !- Outside Boundary Condition Object
  SunExposed,                             !- Sun Exposure
  WindExposed,                            !- Wind Exposure
  ,                                       !- View Factor to Ground
  ,                                       !- Number of Vertices
  -68, 58, 9,                             !- X,Y,Z Vertex 1 {m}
  -68, 58, 6,                             !- X,Y,Z Vertex 2 {m}
  -68, 36, 6,                             !- X,Y,Z Vertex 3 {m}
  -68, 36, 9;                             !- X,Y,Z Vertex 4 {m}

OS:Surface,
  {fdcb88d9-059d-4f2a-9a41-276a44299ab5}, !- Handle
   62,                                    !- Name
  Floor,                                  !- Surface Type
  ,                                       !- Construction Name
  {5d5625ee-e5cd-4971-bc3d-e6a53bb635a8}, !- Space Name
  Surface,                                !- Outside Boundary Condition
  {e2c197f5-b6f0-4167-8260-21f38d9da305}, !- Outside Boundary Condition Object
  NoSun,                                  !- Sun Exposure
  NoWind,                                 !- Wind Exposure
  ,                                       !- View Factor to Ground
  ,                                       !- Number of Vertices
  20, 58, 6,                              !- X,Y,Z Vertex 1 {m}
  20, 36, 6,                              !- X,Y,Z Vertex 2 {m}
  -50, 36, 6,                             !- X,Y,Z Vertex 3 {m}
  -50, 58, 6;                             !- X,Y,Z Vertex 4 {m}

OS:Surface,
  {fe5cd417-dd7f-4431-a5ac-4b34235f97db}, !- Handle
   63,                                    !- Name
  RoofCeiling,                            !- Surface Type
  ,                                       !- Construction Name
  {5d5625ee-e5cd-4971-bc3d-e6a53bb635a8}, !- Space Name
  Outdoors,                               !- Outside Boundary Condition
  ,                                       !- Outside Boundary Condition Object
  SunExposed,                             !- Sun Exposure
  WindExposed,                            !- Wind Exposure
  ,                                       !- View Factor to Ground
  ,                                       !- Number of Vertices
  -68, 36, 9,                             !- X,Y,Z Vertex 1 {m}
  20, 36, 9,                              !- X,Y,Z Vertex 2 {m}
  20, 58, 9,                              !- X,Y,Z Vertex 3 {m}
  -68, 58, 9;                             !- X,Y,Z Vertex 4 {m}

OS:Space,
  {249f581e-2c9f-44c5-bf79-bc25858218a4}, !- Handle
  Space 1 - 4,                            !- Name
  {480e32db-d38b-4bf0-ad2a-a57c45c0d8af}, !- Space Type Name
  ,                                       !- Default Construction Set Name
  ,                                       !- Default Schedule Set Name
  ,                                       !- Direction of Relative North {deg}
  ,                                       !- X Origin {m}
  ,                                       !- Y Origin {m}
  ,                                       !- Z Origin {m}
  ,                                       !- Building Story Name
  {c03c71d8-f8f7-4af2-8457-e56c89366ae6}, !- Thermal Zone Name
  ,                                       !- Part of Total Floor Area
  ,                                       !- Design Specification Outdoor Air Object Name
  {65f3b8aa-8950-4690-989d-f82a37d953bc}; !- Building Unit Name

OS:SpaceType,
  {480e32db-d38b-4bf0-ad2a-a57c45c0d8af}, !- Handle
  114,                                    !- Name
  ,                                       !- Default Construction Set Name
  ,                                       !- Default Schedule Set Name
  ,                                       !- Group Rendering Name
  ,                                       !- Design Specification Outdoor Air Object Name
  ,                                       !- Standards Building Type
  bedroom;                                !- Standards Space Type

OS:Surface,
  {6cd17136-5825-4555-82c3-9e0e85ac76a4}, !- Handle
   24,                                    !- Name
  Wall,                                   !- Surface Type
  ,                                       !- Construction Name
  {249f581e-2c9f-44c5-bf79-bc25858218a4}, !- Space Name
  Surface,                                !- Outside Boundary Condition
  {052d8897-ec6f-40c2-a984-172649267188}, !- Outside Boundary Condition Object
  NoSun,                                  !- Sun Exposure
  NoWind,                                 !- Wind Exposure
  ,                                       !- View Factor to Ground
  ,                                       !- Number of Vertices
  -54, 42, 3,                             !- X,Y,Z Vertex 1 {m}
  -54, 42, 0,                             !- X,Y,Z Vertex 2 {m}
  -54, 58, 0,                             !- X,Y,Z Vertex 3 {m}
  -54, 58, 3;                             !- X,Y,Z Vertex 4 {m}

OS:Surface,
  {2f0fbc9f-180f-4d2f-8662-5668a2a480e5}, !- Handle
   23,                                    !- Name
  Wall,                                   !- Surface Type
  ,                                       !- Construction Name
  {249f581e-2c9f-44c5-bf79-bc25858218a4}, !- Space Name
  Outdoors,                               !- Outside Boundary Condition
  ,                                       !- Outside Boundary Condition Object
  SunExposed,                             !- Sun Exposure
  WindExposed,                            !- Wind Exposure
  ,                                       !- View Factor to Ground
  ,                                       !- Number of Vertices
  -54, 58, 3,                             !- X,Y,Z Vertex 1 {m}
  -54, 58, 0,                             !- X,Y,Z Vertex 2 {m}
  -68, 58, 0,                             !- X,Y,Z Vertex 3 {m}
  -68, 58, 3;                             !- X,Y,Z Vertex 4 {m}

OS:Surface,
  {c9780c94-a376-4048-81b3-146ae1f0e9fb}, !- Handle
   22,                                    !- Name
  Wall,                                   !- Surface Type
  ,                                       !- Construction Name
  {249f581e-2c9f-44c5-bf79-bc25858218a4}, !- Space Name
  Outdoors,                               !- Outside Boundary Condition
  ,                                       !- Outside Boundary Condition Object
  SunExposed,                             !- Sun Exposure
  WindExposed,                            !- Wind Exposure
  ,                                       !- View Factor to Ground
  ,                                       !- Number of Vertices
  -68, 58, 3,                             !- X,Y,Z Vertex 1 {m}
  -68, 58, 0,                             !- X,Y,Z Vertex 2 {m}
  -68, 42, 0,                             !- X,Y,Z Vertex 3 {m}
  -68, 42, 3;                             !- X,Y,Z Vertex 4 {m}

OS:Surface,
  {3dbf1b25-2878-4ecc-a305-625832ca77c9}, !- Handle
   21,                                    !- Name
  Wall,                                   !- Surface Type
  ,                                       !- Construction Name
  {249f581e-2c9f-44c5-bf79-bc25858218a4}, !- Space Name
  Surface,                                !- Outside Boundary Condition