!- NOTE: Auto-generated from /test/osw_files/SFD_2000sqft_2story_SL_UA_AllLayersButWallSheathing_CeilingIns.osw

OS:Version,
  {79a89abf-6088-4390-b368-312b6e08acb1}, !- Handle
  2.4.0;                                  !- Version Identifier

OS:Building,
  {bf305633-c5a1-4881-9edf-ca5e1a8e1274}, !- Handle
  Building,                               !- Name
  ,                                       !- Building Sector Type
  ,                                       !- North Axis {deg}
  ,                                       !- Nominal Floor to Floor Height {m}
  ,                                       !- Space Type Name
  ,                                       !- Default Construction Set Name
  ,                                       !- Default Schedule Set Name
  2,                                      !- Standards Number of Stories
  2,                                      !- Standards Number of Above Ground Stories
  singlefamilydetached,                   !- Standards Building Type
  1;                                      !- Standards Number of Living Units

OS:YearDescription,
  {513d8dda-86cb-442a-b01c-1f7f0e0ac70e}; !- Handle

OS:SimulationControl,
  {2c487a4c-bac9-4ac5-b669-1e49d9da7c2b}, !- Handle
  ,                                       !- Do Zone Sizing Calculation
  ,                                       !- Do System Sizing Calculation
  ,                                       !- Do Plant Sizing Calculation
  No,                                     !- Run Simulation for Sizing Periods
  ;                                       !- Run Simulation for Weather File Run Periods

OS:Timestep,
  {4ebc9f1e-4707-402e-9844-67eb1ffbd522}, !- Handle
  6;                                      !- Number of Timesteps per Hour

OS:RunPeriod,
  {28df894d-6af9-4fb8-8f56-df1753344aa3}, !- Handle
  Run Period,                             !- Name
  1,                                      !- Begin Month
  1,                                      !- Begin Day of Month
  12,                                     !- End Month
  31,                                     !- End Day of Month
  ,                                       !- Use Weather File Holidays and Special Days
  ,                                       !- Use Weather File Daylight Saving Period
  ,                                       !- Apply Weekend Holiday Rule
  ,                                       !- Use Weather File Rain Indicators
  ,                                       !- Use Weather File Snow Indicators
  ;                                       !- Number of Times Runperiod to be Repeated

OS:Sizing:Parameters,
  {dde5af6f-7923-4600-a28a-7556673a0266}, !- Handle
  1.0,                                    !- Heating Sizing Factor
  1.0;                                    !- Cooling Sizing Factor

OS:ShadowCalculation,
  {ca758bea-4416-4626-9bba-3d8795c79bd6}, !- Handle
  20,                                     !- Calculation Frequency
  200;                                    !- Maximum Figures in Shadow Overlap Calculations

OS:SurfaceConvectionAlgorithm:Inside,
  {aaabfc36-718a-4ab0-b622-f186ebb45230}, !- Handle
  TARP;                                   !- Algorithm

OS:SurfaceConvectionAlgorithm:Outside,
  {9a0a9f6f-4bbd-4b12-a121-9492a1fcd7d6}, !- Handle
  DOE-2;                                  !- Algorithm

OS:HeatBalanceAlgorithm,
  {9d93e563-e1e0-46d7-9e39-d1c8aceb7212}, !- Handle
  ConductionTransferFunction,             !- Algorithm
  200;                                    !- Surface Temperature Upper Limit {C}

OS:ZoneCapacitanceMultiplier:ResearchSpecial,
  {6bfced16-b16f-47f6-8223-f7e267d75d19}, !- Handle
  ,                                       !- Temperature Capacity Multiplier
  15,                                     !- Humidity Capacity Multiplier
  ;                                       !- Carbon Dioxide Capacity Multiplier

OS:ThermalZone,
  {6de78fb1-787e-4bef-b0c0-9064402dd32c}, !- Handle
  living zone,                            !- Name
  ,                                       !- Multiplier
  ,                                       !- Ceiling Height {m}
  ,                                       !- Volume {m3}
  ,                                       !- Floor Area {m2}
  ,                                       !- Zone Inside Convection Algorithm
  ,                                       !- Zone Outside Convection Algorithm
  ,                                       !- Zone Conditioning Equipment List Name
  {2d795765-58c2-4db8-a650-5923e77b4a4e}, !- Zone Air Inlet Port List
  {5e35e441-6a4e-416e-84d4-e1c94729c006}, !- Zone Air Exhaust Port List
  {ed384865-bd24-4966-a1c4-1fff33d1845d}, !- Zone Air Node Name
  ,                                       !- Zone Return Air Node Name
  ,                                       !- Primary Daylighting Control Name
  ,                                       !- Fraction of Zone Controlled by Primary Daylighting Control
  ,                                       !- Secondary Daylighting Control Name
  ,                                       !- Fraction of Zone Controlled by Secondary Daylighting Control
  ,                                       !- Illuminance Map Name
  ,                                       !- Group Rendering Name
  ,                                       !- Thermostat Name
  No;                                     !- Use Ideal Air Loads

OS:Node,
  {d0c166cd-f491-470b-95f7-58b52c550342}, !- Handle
  Node 1,                                 !- Name
  {ed384865-bd24-4966-a1c4-1fff33d1845d}, !- Inlet Port
  ;                                       !- Outlet Port

OS:Connection,
  {ed384865-bd24-4966-a1c4-1fff33d1845d}, !- Handle
  {e2e80666-cda0-48ec-b6af-5c6a40d8fa1e}, !- Name
  {6de78fb1-787e-4bef-b0c0-9064402dd32c}, !- Source Object
  11,                                     !- Outlet Port
  {d0c166cd-f491-470b-95f7-58b52c550342}, !- Target Object
  2;                                      !- Inlet Port

OS:PortList,
  {2d795765-58c2-4db8-a650-5923e77b4a4e}, !- Handle
  {57f9c944-e4a0-4bc4-b26d-3646b77b2839}, !- Name
  {6de78fb1-787e-4bef-b0c0-9064402dd32c}; !- HVAC Component

OS:PortList,
  {5e35e441-6a4e-416e-84d4-e1c94729c006}, !- Handle
  {f724db90-3f28-43f0-9ef6-0ac8dc8c9b81}, !- Name
  {6de78fb1-787e-4bef-b0c0-9064402dd32c}; !- HVAC Component

OS:Sizing:Zone,
  {08147ec6-5094-40cf-9bb4-cf7ed0a2a9bb}, !- Handle
  {6de78fb1-787e-4bef-b0c0-9064402dd32c}, !- Zone or ZoneList Name
  SupplyAirTemperature,                   !- Zone Cooling Design Supply Air Temperature Input Method
  14,                                     !- Zone Cooling Design Supply Air Temperature {C}
  11.11,                                  !- Zone Cooling Design Supply Air Temperature Difference {deltaC}
  SupplyAirTemperature,                   !- Zone Heating Design Supply Air Temperature Input Method
  40,                                     !- Zone Heating Design Supply Air Temperature {C}
  11.11,                                  !- Zone Heating Design Supply Air Temperature Difference {deltaC}
  0.0085,                                 !- Zone Cooling Design Supply Air Humidity Ratio {kg-H2O/kg-air}
  0.008,                                  !- Zone Heating Design Supply Air Humidity Ratio {kg-H2O/kg-air}
  ,                                       !- Zone Heating Sizing Factor
  ,                                       !- Zone Cooling Sizing Factor
  DesignDay,                              !- Cooling Design Air Flow Method
  ,                                       !- Cooling Design Air Flow Rate {m3/s}
  ,                                       !- Cooling Minimum Air Flow per Zone Floor Area {m3/s-m2}
  ,                                       !- Cooling Minimum Air Flow {m3/s}
  ,                                       !- Cooling Minimum Air Flow Fraction
  DesignDay,                              !- Heating Design Air Flow Method
  ,                                       !- Heating Design Air Flow Rate {m3/s}
  ,                                       !- Heating Maximum Air Flow per Zone Floor Area {m3/s-m2}
  ,                                       !- Heating Maximum Air Flow {m3/s}
  ,                                       !- Heating Maximum Air Flow Fraction
  ,                                       !- Design Zone Air Distribution Effectiveness in Cooling Mode
  ,                                       !- Design Zone Air Distribution Effectiveness in Heating Mode
  No,                                     !- Account for Dedicated Outdoor Air System
  NeutralSupplyAir,                       !- Dedicated Outdoor Air System Control Strategy
  autosize,                               !- Dedicated Outdoor Air Low Setpoint Temperature for Design {C}
  autosize;                               !- Dedicated Outdoor Air High Setpoint Temperature for Design {C}

OS:ZoneHVAC:EquipmentList,
  {516e017e-7332-431d-9f8a-1917a60df84d}, !- Handle
  Zone HVAC Equipment List 1,             !- Name
  {6de78fb1-787e-4bef-b0c0-9064402dd32c}; !- Thermal Zone

OS:Space,
  {66eba7c2-402b-49ae-a7bc-3e0365306ddb}, !- Handle
  living space,                           !- Name
  ,                                       !- Space Type Name
  ,                                       !- Default Construction Set Name
  ,                                       !- Default Schedule Set Name
  -0,                                     !- Direction of Relative North {deg}
  0,                                      !- X Origin {m}
  0,                                      !- Y Origin {m}
  0,                                      !- Z Origin {m}
  ,                                       !- Building Story Name
  {6de78fb1-787e-4bef-b0c0-9064402dd32c}, !- Thermal Zone Name
  ,                                       !- Part of Total Floor Area
  ,                                       !- Design Specification Outdoor Air Object Name
  {baccae23-541d-4c12-aa50-1e3f761df41a}; !- Building Unit Name

OS:Surface,
  {f28ca7f0-ef83-4127-973a-6b9b8bcccb27}, !- Handle
  Surface 1,                              !- Name
  Floor,                                  !- Surface Type
  ,                                       !- Construction Name
  {66eba7c2-402b-49ae-a7bc-3e0365306ddb}, !- Space Name
  Ground,                                 !- Outside Boundary Condition
  ,                                       !- Outside Boundary Condition Object
  NoSun,                                  !- Sun Exposure
  NoWind,                                 !- Wind Exposure
  ,                                       !- View Factor to Ground
  ,                                       !- Number of Vertices
  0, 0, 0,                                !- X,Y,Z Vertex 1 {m}
  0, 6.81553519541936, 0,                 !- X,Y,Z Vertex 2 {m}
  13.6310703908387, 6.81553519541936, 0,  !- X,Y,Z Vertex 3 {m}
  13.6310703908387, 0, 0;                 !- X,Y,Z Vertex 4 {m}

OS:Surface,
  {345b4aca-049e-43b6-8ecb-3139900f39cd}, !- Handle
  Surface 2,                              !- Name
  Wall,                                   !- Surface Type
  {7460e8e7-0adc-4d96-a97b-c09a82b23240}, !- Construction Name
  {66eba7c2-402b-49ae-a7bc-3e0365306ddb}, !- Space Name
  Outdoors,                               !- Outside Boundary Condition
  ,                                       !- Outside Boundary Condition Object
  SunExposed,                             !- Sun Exposure
  WindExposed,                            !- Wind Exposure
  ,                                       !- View Factor to Ground
  ,                                       !- Number of Vertices
  0, 6.81553519541936, 2.4384,            !- X,Y,Z Vertex 1 {m}
  0, 6.81553519541936, 0,                 !- X,Y,Z Vertex 2 {m}
  0, 0, 0,                                !- X,Y,Z Vertex 3 {m}
  0, 0, 2.4384;                           !- X,Y,Z Vertex 4 {m}

OS:Surface,
  {382ee131-f49d-4019-907c-0977a6273d87}, !- Handle
  Surface 3,                              !- Name
  Wall,                                   !- Surface Type
  {7460e8e7-0adc-4d96-a97b-c09a82b23240}, !- Construction Name
  {66eba7c2-402b-49ae-a7bc-3e0365306ddb}, !- Space Name
  Outdoors,                               !- Outside Boundary Condition
  ,                                       !- Outside Boundary Condition Object
  SunExposed,                             !- Sun Exposure
  WindExposed,                            !- Wind Exposure
  ,                                       !- View Factor to Ground
  ,                                       !- Number of Vertices
  13.6310703908387, 6.81553519541936, 2.4384, !- X,Y,Z Vertex 1 {m}
  13.6310703908387, 6.81553519541936, 0,  !- X,Y,Z Vertex 2 {m}
  0, 6.81553519541936, 0,                 !- X,Y,Z Vertex 3 {m}
  0, 6.81553519541936, 2.4384;            !- X,Y,Z Vertex 4 {m}

OS:Surface,
  {2a3c6d71-1397-41a4-8793-9e2840998a88}, !- Handle
  Surface 4,                              !- Name
  Wall,                                   !- Surface Type
  {7460e8e7-0adc-4d96-a97b-c09a82b23240}, !- Construction Name
  {66eba7c2-402b-49ae-a7bc-3e0365306ddb}, !- Space Name
  Outdoors,                               !- Outside Boundary Condition
  ,                                       !- Outside Boundary Condition Object
  SunExposed,                             !- Sun Exposure
  WindExposed,                            !- Wind Exposure
  ,                                       !- View Factor to Ground
  ,                                       !- Number of Vertices
  13.6310703908387, 0, 2.4384,            !- X,Y,Z Vertex 1 {m}
  13.6310703908387, 0, 0,                 !- X,Y,Z Vertex 2 {m}
  13.6310703908387, 6.81553519541936, 0,  !- X,Y,Z Vertex 3 {m}
  13.6310703908387, 6.81553519541936, 2.4384; !- X,Y,Z Vertex 4 {m}

OS:Surface,
  {dcf5a815-9f73-4ff6-be31-fb48ffa6893b}, !- Handle
  Surface 5,                              !- Name
  Wall,                                   !- Surface Type
  {7460e8e7-0adc-4d96-a97b-c09a82b23240}, !- Construction Name
  {66eba7c2-402b-49ae-a7bc-3e0365306ddb}, !- Space Name
  Outdoors,                               !- Outside Boundary Condition
  ,                                       !- Outside Boundary Condition Object
  SunExposed,                             !- Sun Exposure
  WindExposed,                            !- Wind Exposure
  ,                                       !- View Factor to Ground
  ,                                       !- Number of Vertices
  0, 0, 2.4384,                           !- X,Y,Z Vertex 1 {m}
  0, 0, 0,                                !- X,Y,Z Vertex 2 {m}
  13.6310703908387, 0, 0,                 !- X,Y,Z Vertex 3 {m}
  13.6310703908387, 0, 2.4384;            !- X,Y,Z Vertex 4 {m}

OS:Surface,
  {2d9297e2-3592-402d-ae6d-c09a0007da81}, !- Handle
  Surface 6,                              !- Name
  RoofCeiling,                            !- Surface Type
  {464ffd8d-9cdd-4ef4-9222-4c2d1e720272}, !- Construction Name
  {66eba7c2-402b-49ae-a7bc-3e0365306ddb}, !- Space Name
  Surface,                                !- Outside Boundary Condition
  {bdcadf1d-8b2c-467d-9815-d2a66d92d8e3}, !- Outside Boundary Condition Object
  NoSun,                                  !- Sun Exposure
  NoWind,                                 !- Wind Exposure
  ,                                       !- View Factor to Ground
  ,                                       !- Number of Vertices
  13.6310703908387, 0, 2.4384,            !- X,Y,Z Vertex 1 {m}
  13.6310703908387, 6.81553519541936, 2.4384, !- X,Y,Z Vertex 2 {m}
  0, 6.81553519541936, 2.4384,            !- X,Y,Z Vertex 3 {m}
  0, 0, 2.4384;                           !- X,Y,Z Vertex 4 {m}

OS:Space,
  {a1a0f10a-63fb-49bd-931b-25321504c6eb}, !- Handle
  living space|story 2,                   !- Name
  ,                                       !- Space Type Name
  ,                                       !- Default Construction Set Name
  ,                                       !- Default Schedule Set Name
  -0,                                     !- Direction of Relative North {deg}
  0,                                      !- X Origin {m}
  0,                                      !- Y Origin {m}
  2.4384,                                 !- Z Origin {m}
  ,                                       !- Building Story Name
  {6de78fb1-787e-4bef-b0c0-9064402dd32c}, !- Thermal Zone Name
  ,                                       !- Part of Total Floor Area
  ,                                       !- Design Specification Outdoor Air Object Name
  {baccae23-541d-4c12-aa50-1e3f761df41a}; !- Building Unit Name

OS:Surface,
  {bdcadf1d-8b2c-467d-9815-d2a66d92d8e3}, !- Handle
  Surface 7,                              !- Name
  Floor,                                  !- Surface Type
  {464ffd8d-9cdd-4ef4-9222-4c2d1e720272}, !- Construction Name
  {a1a0f10a-63fb-49bd-931b-25321504c6eb}, !- Space Name
  Surface,                                !- Outside Boundary Condition
  {2d9297e2-3592-402d-ae6d-c09a0007da81}, !- Outside Boundary Condition Object
  NoSun,                                  !- Sun Exposure
  NoWind,                                 !- Wind Exposure
  ,                                       !- View Factor to Ground
  ,                                       !- Number of Vertices
  0, 0, 0,                                !- X,Y,Z Vertex 1 {m}
  0, 6.81553519541936, 0,                 !- X,Y,Z Vertex 2 {m}
  13.6310703908387, 6.81553519541936, 0,  !- X,Y,Z Vertex 3 {m}
  13.6310703908387, 0, 0;                 !- X,Y,Z Vertex 4 {m}

OS:Surface,
  {8d6f3432-a131-41cf-9b17-9baab357dcb2}, !- Handle
  Surface 8,                              !- Name
  Wall,                                   !- Surface Type
  {7460e8e7-0adc-4d96-a97b-c09a82b23240}, !- Construction Name
  {a1a0f10a-63fb-49bd-931b-25321504c6eb}, !- Space Name
  Outdoors,                               !- Outside Boundary Condition
  ,                                       !- Outside Boundary Condition Object
  SunExposed,                             !- Sun Exposure
  WindExposed,                            !- Wind Exposure
  ,                                       !- View Factor to Ground
  ,                                       !- Number of Vertices
  0, 6.81553519541936, 2.4384,            !- X,Y,Z Vertex 1 {m}
  0, 6.81553519541936, 0,                 !- X,Y,Z Vertex 2 {m}
  0, 0, 0,                                !- X,Y,Z Vertex 3 {m}
  0, 0, 2.4384;                           !- X,Y,Z Vertex 4 {m}

OS:Surface,
  {e6a9648e-077e-44f0-a968-5875e7d491e9}, !- Handle
  Surface 9,                              !- Name
  Wall,                                   !- Surface Type
  {7460e8e7-0adc-4d96-a97b-c09a82b23240}, !- Construction Name
  {a1a0f10a-63fb-49bd-931b-25321504c6eb}, !- Space Name
  Outdoors,                               !- Outside Boundary Condition
  ,                                       !- Outside Boundary Condition Object
  SunExposed,                             !- Sun Exposure
  WindExposed,                            !- Wind Exposure
  ,                                       !- View Factor to Ground
  ,                                       !- Number of Vertices
  13.6310703908387, 6.81553519541936, 2.4384, !- X,Y,Z Vertex 1 {m}
  13.6310703908387, 6.81553519541936, 0,  !- X,Y,Z Vertex 2 {m}
  0, 6.81553519541936, 0,                 !- X,Y,Z Vertex 3 {m}
  0, 6.81553519541936, 2.4384;            !- X,Y,Z Vertex 4 {m}

OS:Surface,
  {76eb02c5-4542-4af5-8cbb-f94c865f0140}, !- Handle
  Surface 10,                             !- Name
  Wall,                                   !- Surface Type
  {7460e8e7-0adc-4d96-a97b-c09a82b23240}, !- Construction Name
  {a1a0f10a-63fb-49bd-931b-25321504c6eb}, !- Space Name
  Outdoors,                               !- Outside Boundary Condition
  ,                                       !- Outside Boundary Condition Object
  SunExposed,                             !- Sun Exposure
  WindExposed,                            !- Wind Exposure
  ,                                       !- View Factor to Ground
  ,                                       !- Number of Vertices
  13.6310703908387, 0, 2.4384,            !- X,Y,Z Vertex 1 {m}
  13.6310703908387, 0, 0,                 !- X,Y,Z Vertex 2 {m}
  13.6310703908387, 6.81553519541936, 0,  !- X,Y,Z Vertex 3 {m}
  13.6310703908387, 6.81553519541936, 2.4384; !- X,Y,Z Vertex 4 {m}

OS:Surface,
  {4bbba127-5ea6-4c83-bfd8-9d356872a21e}, !- Handle
  Surface 11,                             !- Name
  Wall,                                   !- Surface Type
  {7460e8e7-0adc-4d96-a97b-c09a82b23240}, !- Construction Name
  {a1a0f10a-63fb-49bd-931b-25321504c6eb}, !- Space Name
  Outdoors,                               !- Outside Boundary Condition
  ,                                       !- Outside Boundary Condition Object
  SunExposed,                             !- Sun Exposure
  WindExposed,                            !- Wind Exposure
  ,                                       !- View Factor to Ground
  ,                                       !- Number of Vertices
  0, 0, 2.4384,                           !- X,Y,Z Vertex 1 {m}
  0, 0, 0,                                !- X,Y,Z Vertex 2 {m}
  13.6310703908387, 0, 0,                 !- X,Y,Z Vertex 3 {m}
  13.6310703908387, 0, 2.4384;            !- X,Y,Z Vertex 4 {m}

OS:Surface,
  {d2ed5abc-aa13-4efa-9e32-a4da0a43c8d2}, !- Handle
  Surface 12,                             !- Name
  RoofCeiling,                            !- Surface Type
  {35a46899-3c7d-40d1-a2e6-64abf28b1a01}, !- Construction Name
  {a1a0f10a-63fb-49bd-931b-25321504c6eb}, !- Space Name
  Surface,                                !- Outside Boundary Condition
  {82dcebf3-b2df-4d67-83b3-a52760d46205}, !- Outside Boundary Condition Object
  NoSun,                                  !- Sun Exposure
  NoWind,                                 !- Wind Exposure
  ,                                       !- View Factor to Ground
  ,                                       !- Number of Vertices
  13.6310703908387, 0, 2.4384,            !- X,Y,Z Vertex 1 {m}
  13.6310703908387, 6.81553519541936, 2.4384, !- X,Y,Z Vertex 2 {m}
  0, 6.81553519541936, 2.4384,            !- X,Y,Z Vertex 3 {m}
  0, 0, 2.4384;                           !- X,Y,Z Vertex 4 {m}

OS:Surface,
  {82dcebf3-b2df-4d67-83b3-a52760d46205}, !- Handle
  Surface 13,                             !- Name
  Floor,                                  !- Surface Type
  {068eadd1-8b6f-428c-bf8d-905713c3e6eb}, !- Construction Name
  {03b1a4a4-fc60-4fd8-8bf6-31a375d8f789}, !- Space Name
  Surface,                                !- Outside Boundary Condition
  {d2ed5abc-aa13-4efa-9e32-a4da0a43c8d2}, !- Outside Boundary Condition Object
  NoSun,                                  !- Sun Exposure
  NoWind,                                 !- Wind Exposure
  ,                                       !- View Factor to Ground
  ,                                       !- Number of Vertices
  0, 6.81553519541936, 0,                 !- X,Y,Z Vertex 1 {m}
  13.6310703908387, 6.81553519541936, 0,  !- X,Y,Z Vertex 2 {m}
  13.6310703908387, 0, 0,                 !- X,Y,Z Vertex 3 {m}
  0, 0, 0;                                !- X,Y,Z Vertex 4 {m}

OS:Surface,
  {5a31b357-cd26-47de-b81b-77cbe2a588b0}, !- Handle
  Surface 14,                             !- Name
  RoofCeiling,                            !- Surface Type
  {f6f59b47-7917-409e-9113-0326d794a0b5}, !- Construction Name
  {03b1a4a4-fc60-4fd8-8bf6-31a375d8f789}, !- Space Name
  Outdoors,                               !- Outside Boundary Condition
  ,                                       !- Outside Boundary Condition Object
  SunExposed,                             !- Sun Exposure
  WindExposed,                            !- Wind Exposure
  ,                                       !- View Factor to Ground
  ,                                       !- Number of Vertices
  13.6310703908387, 3.40776759770968, 1.70388379885484, !- X,Y,Z Vertex 1 {m}
  0, 3.40776759770968, 1.70388379885484,  !- X,Y,Z Vertex 2 {m}
  0, 0, 0,                                !- X,Y,Z Vertex 3 {m}
  13.6310703908387, 0, 0;                 !- X,Y,Z Vertex 4 {m}

OS:Surface,
  {88044c40-0a44-4abb-b911-9c23a1d9b382}, !- Handle
  Surface 15,                             !- Name
  RoofCeiling,                            !- Surface Type
  {f6f59b47-7917-409e-9113-0326d794a0b5}, !- Construction Name
  {03b1a4a4-fc60-4fd8-8bf6-31a375d8f789}, !- Space Name
  Outdoors,                               !- Outside Boundary Condition
  ,                                       !- Outside Boundary Condition Object
  SunExposed,                             !- Sun Exposure
  WindExposed,                            !- Wind Exposure
  ,                                       !- View Factor to Ground
  ,                                       !- Number of Vertices
  0, 3.40776759770968, 1.70388379885484,  !- X,Y,Z Vertex 1 {m}
  13.6310703908387, 3.40776759770968, 1.70388379885484, !- X,Y,Z Vertex 2 {m}
  13.6310703908387, 6.81553519541936, 0,  !- X,Y,Z Vertex 3 {m}
  0, 6.81553519541936, 0;                 !- X,Y,Z Vertex 4 {m}

OS:Surface,
  {38800bb1-c066-44c8-9db0-1774ac46aadb}, !- Handle
  Surface 16,                             !- Name
  Wall,                                   !- Surface Type
  {34e565fa-ff3b-43d3-8ed5-53eb95747a4c}, !- Construction Name
  {03b1a4a4-fc60-4fd8-8bf6-31a375d8f789}, !- Space Name
  Outdoors,                               !- Outside Boundary Condition
  ,                                       !- Outside Boundary Condition Object
  SunExposed,                             !- Sun Exposure
  WindExposed,                            !- Wind Exposure
  ,                                       !- View Factor to Ground
  ,                                       !- Number of Vertices
  0, 3.40776759770968, 1.70388379885484,  !- X,Y,Z Vertex 1 {m}
  0, 6.81553519541936, 0,                 !- X,Y,Z Vertex 2 {m}
  0, 0, 0;                                !- X,Y,Z Vertex 3 {m}

OS:Surface,
  {40b0e157-d39d-47ef-b0bc-1724e8a5f1c8}, !- Handle
  Surface 17,                             !- Name
  Wall,                                   !- Surface Type
  {34e565fa-ff3b-43d3-8ed5-53eb95747a4c}, !- Construction Name
  {03b1a4a4-fc60-4fd8-8bf6-31a375d8f789}, !- Space Name
  Outdoors,                               !- Outside Boundary Condition
  ,                                       !- Outside Boundary Condition Object
  SunExposed,                             !- Sun Exposure
  WindExposed,                            !- Wind Exposure
  ,                                       !- View Factor to Ground
  ,                                       !- Number of Vertices
  13.6310703908387, 3.40776759770968, 1.70388379885484, !- X,Y,Z Vertex 1 {m}
  13.6310703908387, 0, 0,                 !- X,Y,Z Vertex 2 {m}
  13.6310703908387, 6.81553519541936, 0;  !- X,Y,Z Vertex 3 {m}

OS:Space,
  {03b1a4a4-fc60-4fd8-8bf6-31a375d8f789}, !- Handle
  unfinished attic space,                 !- Name
  ,                                       !- Space Type Name
  ,                                       !- Default Construction Set Name
  ,                                       !- Default Schedule Set Name
  -0,                                     !- Direction of Relative North {deg}
  0,                                      !- X Origin {m}
  0,                                      !- Y Origin {m}
  4.8768,                                 !- Z Origin {m}
  ,                                       !- Building Story Name
  {9f1f4a5c-e63d-45b2-a4b8-ce0e83b5188e}; !- Thermal Zone Name

OS:ThermalZone,
  {9f1f4a5c-e63d-45b2-a4b8-ce0e83b5188e}, !- Handle
  unfinished attic zone,                  !- Name
  ,                                       !- Multiplier
  ,                                       !- Ceiling Height {m}
  ,                                       !- Volume {m3}
  ,                                       !- Floor Area {m2}
  ,                                       !- Zone Inside Convection Algorithm
  ,                                       !- Zone Outside Convection Algorithm
  ,                                       !- Zone Conditioning Equipment List Name
  {a57c9fbd-6997-4167-8281-5ceab1715c6f}, !- Zone Air Inlet Port List
  {7980af16-3c8c-451d-8371-31836a900f81}, !- Zone Air Exhaust Port List
  {07ce71e7-05fc-4aaa-a53d-0b643d536fe7}, !- Zone Air Node Name
  ,                                       !- Zone Return Air Node Name
  ,                                       !- Primary Daylighting Control Name
  ,                                       !- Fraction of Zone Controlled by Primary Daylighting Control
  ,                                       !- Secondary Daylighting Control Name
  ,                                       !- Fraction of Zone Controlled by Secondary Daylighting Control
  ,                                       !- Illuminance Map Name
  ,                                       !- Group Rendering Name
  ,                                       !- Thermostat Name
  No;                                     !- Use Ideal Air Loads

OS:Node,
  {2e1b9996-8980-4bf9-81ae-21433cfe84be}, !- Handle
  Node 2,                                 !- Name
  {07ce71e7-05fc-4aaa-a53d-0b643d536fe7}, !- Inlet Port
  ;                                       !- Outlet Port

OS:Connection,
  {07ce71e7-05fc-4aaa-a53d-0b643d536fe7}, !- Handle
  {daf6071c-e96b-4267-a5f0-c4e4ffffb479}, !- Name
  {9f1f4a5c-e63d-45b2-a4b8-ce0e83b5188e}, !- Source Object
  11,                                     !- Outlet Port
  {2e1b9996-8980-4bf9-81ae-21433cfe84be}, !- Target Object
  2;                                      !- Inlet Port

OS:PortList,
  {a57c9fbd-6997-4167-8281-5ceab1715c6f}, !- Handle
  {1ab6c70a-d038-4edb-9e49-7a2ae59036fa}, !- Name
  {9f1f4a5c-e63d-45b2-a4b8-ce0e83b5188e}; !- HVAC Component

OS:PortList,
  {7980af16-3c8c-451d-8371-31836a900f81}, !- Handle
  {f8197898-9b13-4fb1-81b8-11d9d5e207fa}, !- Name