!- NOTE: Auto-generated from /test/osw_files/SFD_2000sqft_2story_SL_UA_AllLayersButWallSheathing_CeilingIns.osw

OS:Version,
  {0167ed06-2430-4e53-80cf-982f6659df0d}, !- Handle
  2.3.1;                                  !- Version Identifier

OS:Building,
  {bf305633-c5a1-4881-9edf-ca5e1a8e1274}, !- Handle
  Building,                               !- Name
  ,                                       !- Building Sector Type
  ,                                       !- North Axis {deg}
  ,                                       !- Nominal Floor to Floor Height {m}
  ,                                       !- Space Type Name
  ,                                       !- Default Construction Set Name
  ,                                       !- Default Schedule Set Name
  2,                                      !- Standards Number of Stories
  2,                                      !- Standards Number of Above Ground Stories
  singlefamilydetached,                   !- Standards Building Type
  1;                                      !- Standards Number of Living Units

OS:YearDescription,
  {513d8dda-86cb-442a-b01c-1f7f0e0ac70e}; !- Handle

OS:SimulationControl,
  {2c487a4c-bac9-4ac5-b669-1e49d9da7c2b}, !- Handle
  ,                                       !- Do Zone Sizing Calculation
  ,                                       !- Do System Sizing Calculation
  ,                                       !- Do Plant Sizing Calculation
  No,                                     !- Run Simulation for Sizing Periods
  ;                                       !- Run Simulation for Weather File Run Periods

OS:Timestep,
  {4ebc9f1e-4707-402e-9844-67eb1ffbd522}, !- Handle
  6;                                      !- Number of Timesteps per Hour

OS:RunPeriod,
  {28df894d-6af9-4fb8-8f56-df1753344aa3}, !- Handle
  Run Period,                             !- Name
  1,                                      !- Begin Month
  1,                                      !- Begin Day of Month
  12,                                     !- End Month
  31,                                     !- End Day of Month
  ,                                       !- Use Weather File Holidays and Special Days
  ,                                       !- Use Weather File Daylight Saving Period
  ,                                       !- Apply Weekend Holiday Rule
  ,                                       !- Use Weather File Rain Indicators
  ,                                       !- Use Weather File Snow Indicators
  ;                                       !- Number of Times Runperiod to be Repeated

OS:Sizing:Parameters,
  {dde5af6f-7923-4600-a28a-7556673a0266}, !- Handle
  1.0,                                    !- Heating Sizing Factor
  1.0;                                    !- Cooling Sizing Factor

OS:ShadowCalculation,
  {ca758bea-4416-4626-9bba-3d8795c79bd6}, !- Handle
  20,                                     !- Calculation Frequency
  200;                                    !- Maximum Figures in Shadow Overlap Calculations

OS:SurfaceConvectionAlgorithm:Inside,
  {aaabfc36-718a-4ab0-b622-f186ebb45230}, !- Handle
  TARP;                                   !- Algorithm

OS:SurfaceConvectionAlgorithm:Outside,
  {9a0a9f6f-4bbd-4b12-a121-9492a1fcd7d6}, !- Handle
  DOE-2;                                  !- Algorithm

OS:HeatBalanceAlgorithm,
  {9d93e563-e1e0-46d7-9e39-d1c8aceb7212}, !- Handle
  ConductionTransferFunction,             !- Algorithm
  200;                                    !- Surface Temperature Upper Limit {C}

OS:ZoneCapacitanceMultiplier:ResearchSpecial,
  {6bfced16-b16f-47f6-8223-f7e267d75d19}, !- Handle
  ,                                       !- Temperature Capacity Multiplier
  15,                                     !- Humidity Capacity Multiplier
  ;                                       !- Carbon Dioxide Capacity Multiplier

OS:ThermalZone,
  {8adf4143-4b9f-4d7c-b022-3e9240774a5e}, !- Handle
  living zone,                            !- Name
  ,                                       !- Multiplier
  ,                                       !- Ceiling Height {m}
  ,                                       !- Volume {m3}
  ,                                       !- Floor Area {m2}
  ,                                       !- Zone Inside Convection Algorithm
  ,                                       !- Zone Outside Convection Algorithm
  ,                                       !- Zone Conditioning Equipment List Name
  {294144b3-db21-4995-8363-616be860ca69}, !- Zone Air Inlet Port List
  {151feccf-d9f2-4721-924c-ffa0dffa743f}, !- Zone Air Exhaust Port List
  {4b4a74ca-e0d7-45f6-b940-2f38573b248c}, !- Zone Air Node Name
  ,                                       !- Zone Return Air Node Name
  ,                                       !- Primary Daylighting Control Name
  ,                                       !- Fraction of Zone Controlled by Primary Daylighting Control
  ,                                       !- Secondary Daylighting Control Name
  ,                                       !- Fraction of Zone Controlled by Secondary Daylighting Control
  ,                                       !- Illuminance Map Name
  ,                                       !- Group Rendering Name
  ,                                       !- Thermostat Name
  No;                                     !- Use Ideal Air Loads

OS:Node,
  {d29ae357-6c33-4a02-bbb0-9363ba548e4b}, !- Handle
  Node 1,                                 !- Name
  {4b4a74ca-e0d7-45f6-b940-2f38573b248c}, !- Inlet Port
  ;                                       !- Outlet Port

OS:Connection,
  {4b4a74ca-e0d7-45f6-b940-2f38573b248c}, !- Handle
  {7ef2425d-72b6-4cdf-bdff-7e7f9cb7cc81}, !- Name
  {8adf4143-4b9f-4d7c-b022-3e9240774a5e}, !- Source Object
  11,                                     !- Outlet Port
  {d29ae357-6c33-4a02-bbb0-9363ba548e4b}, !- Target Object
  2;                                      !- Inlet Port

OS:PortList,
  {294144b3-db21-4995-8363-616be860ca69}, !- Handle
  {68b7cff5-8b3d-4293-a2a9-e9cf24d77207}, !- Name
  {8adf4143-4b9f-4d7c-b022-3e9240774a5e}; !- HVAC Component

OS:PortList,
  {151feccf-d9f2-4721-924c-ffa0dffa743f}, !- Handle
  {439599ae-a060-47b4-820b-775a54dddba2}, !- Name
  {8adf4143-4b9f-4d7c-b022-3e9240774a5e}; !- HVAC Component

OS:Sizing:Zone,
  {0b32edca-7385-4e90-b18f-fd6bbcc128ac}, !- Handle
  {8adf4143-4b9f-4d7c-b022-3e9240774a5e}, !- Zone or ZoneList Name
  SupplyAirTemperature,                   !- Zone Cooling Design Supply Air Temperature Input Method
  14,                                     !- Zone Cooling Design Supply Air Temperature {C}
  11.11,                                  !- Zone Cooling Design Supply Air Temperature Difference {deltaC}
  SupplyAirTemperature,                   !- Zone Heating Design Supply Air Temperature Input Method
  40,                                     !- Zone Heating Design Supply Air Temperature {C}
  11.11,                                  !- Zone Heating Design Supply Air Temperature Difference {deltaC}
  0.0085,                                 !- Zone Cooling Design Supply Air Humidity Ratio {kg-H2O/kg-air}
  0.008,                                  !- Zone Heating Design Supply Air Humidity Ratio {kg-H2O/kg-air}
  ,                                       !- Zone Heating Sizing Factor
  ,                                       !- Zone Cooling Sizing Factor
  DesignDay,                              !- Cooling Design Air Flow Method
  ,                                       !- Cooling Design Air Flow Rate {m3/s}
  ,                                       !- Cooling Minimum Air Flow per Zone Floor Area {m3/s-m2}
  ,                                       !- Cooling Minimum Air Flow {m3/s}
  ,                                       !- Cooling Minimum Air Flow Fraction
  DesignDay,                              !- Heating Design Air Flow Method
  ,                                       !- Heating Design Air Flow Rate {m3/s}
  ,                                       !- Heating Maximum Air Flow per Zone Floor Area {m3/s-m2}
  ,                                       !- Heating Maximum Air Flow {m3/s}
  ,                                       !- Heating Maximum Air Flow Fraction
  ,                                       !- Design Zone Air Distribution Effectiveness in Cooling Mode
  ,                                       !- Design Zone Air Distribution Effectiveness in Heating Mode
  No,                                     !- Account for Dedicated Outdoor Air System
  NeutralSupplyAir,                       !- Dedicated Outdoor Air System Control Strategy
  autosize,                               !- Dedicated Outdoor Air Low Setpoint Temperature for Design {C}
  autosize;                               !- Dedicated Outdoor Air High Setpoint Temperature for Design {C}

OS:ZoneHVAC:EquipmentList,
  {bf7c7205-2d36-4799-88fa-04c3c949ab97}, !- Handle
  Zone HVAC Equipment List 1,             !- Name
  {8adf4143-4b9f-4d7c-b022-3e9240774a5e}; !- Thermal Zone

OS:Space,
  {2e163852-eade-4d96-9eb0-1fbbaa51210e}, !- Handle
  living space,                           !- Name
  ,                                       !- Space Type Name
  ,                                       !- Default Construction Set Name
  ,                                       !- Default Schedule Set Name
  -0,                                     !- Direction of Relative North {deg}
  0,                                      !- X Origin {m}
  0,                                      !- Y Origin {m}
  0,                                      !- Z Origin {m}
  ,                                       !- Building Story Name
  {8adf4143-4b9f-4d7c-b022-3e9240774a5e}, !- Thermal Zone Name
  ,                                       !- Part of Total Floor Area
  ,                                       !- Design Specification Outdoor Air Object Name
  {57f0ea23-8f18-4b21-8c41-f30098112b23}; !- Building Unit Name

OS:Surface,
  {4bd1d368-eaab-430e-bbbb-dccf21a30f86}, !- Handle
  Surface 1,                              !- Name
  Floor,                                  !- Surface Type
  ,                                       !- Construction Name
  {2e163852-eade-4d96-9eb0-1fbbaa51210e}, !- Space Name
  Ground,                                 !- Outside Boundary Condition
  ,                                       !- Outside Boundary Condition Object
  NoSun,                                  !- Sun Exposure
  NoWind,                                 !- Wind Exposure
  ,                                       !- View Factor to Ground
  ,                                       !- Number of Vertices
  0, 0, 0,                                !- X,Y,Z Vertex 1 {m}
  0, 6.81553519541936, 0,                 !- X,Y,Z Vertex 2 {m}
  13.6310703908387, 6.81553519541936, 0,  !- X,Y,Z Vertex 3 {m}
  13.6310703908387, 0, 0;                 !- X,Y,Z Vertex 4 {m}

OS:Surface,
  {49c94a79-d7a7-4e40-8d6b-6b8397e73a7a}, !- Handle
  Surface 2,                              !- Name
  Wall,                                   !- Surface Type
  {4fe0ebfc-13f9-43fe-9982-23104be26650}, !- Construction Name
  {2e163852-eade-4d96-9eb0-1fbbaa51210e}, !- Space Name
  Outdoors,                               !- Outside Boundary Condition
  ,                                       !- Outside Boundary Condition Object
  SunExposed,                             !- Sun Exposure
  WindExposed,                            !- Wind Exposure
  ,                                       !- View Factor to Ground
  ,                                       !- Number of Vertices
  0, 6.81553519541936, 2.4384,            !- X,Y,Z Vertex 1 {m}
  0, 6.81553519541936, 0,                 !- X,Y,Z Vertex 2 {m}
  0, 0, 0,                                !- X,Y,Z Vertex 3 {m}
  0, 0, 2.4384;                           !- X,Y,Z Vertex 4 {m}

OS:Surface,
  {f2382731-35f9-403d-b196-2f793740f838}, !- Handle
  Surface 3,                              !- Name
  Wall,                                   !- Surface Type
  {4fe0ebfc-13f9-43fe-9982-23104be26650}, !- Construction Name
  {2e163852-eade-4d96-9eb0-1fbbaa51210e}, !- Space Name
  Outdoors,                               !- Outside Boundary Condition
  ,                                       !- Outside Boundary Condition Object
  SunExposed,                             !- Sun Exposure
  WindExposed,                            !- Wind Exposure
  ,                                       !- View Factor to Ground
  ,                                       !- Number of Vertices
  13.6310703908387, 6.81553519541936, 2.4384, !- X,Y,Z Vertex 1 {m}
  13.6310703908387, 6.81553519541936, 0,  !- X,Y,Z Vertex 2 {m}
  0, 6.81553519541936, 0,                 !- X,Y,Z Vertex 3 {m}
  0, 6.81553519541936, 2.4384;            !- X,Y,Z Vertex 4 {m}

OS:Surface,
  {cf7571c0-583e-429a-bd9c-856633a9cda4}, !- Handle
  Surface 4,                              !- Name
  Wall,                                   !- Surface Type
  {4fe0ebfc-13f9-43fe-9982-23104be26650}, !- Construction Name
  {2e163852-eade-4d96-9eb0-1fbbaa51210e}, !- Space Name
  Outdoors,                               !- Outside Boundary Condition
  ,                                       !- Outside Boundary Condition Object
  SunExposed,                             !- Sun Exposure
  WindExposed,                            !- Wind Exposure
  ,                                       !- View Factor to Ground
  ,                                       !- Number of Vertices
  13.6310703908387, 0, 2.4384,            !- X,Y,Z Vertex 1 {m}
  13.6310703908387, 0, 0,                 !- X,Y,Z Vertex 2 {m}
  13.6310703908387, 6.81553519541936, 0,  !- X,Y,Z Vertex 3 {m}
  13.6310703908387, 6.81553519541936, 2.4384; !- X,Y,Z Vertex 4 {m}

OS:Surface,
  {d5d30fcd-7258-45cc-9aa0-9fbce856ecee}, !- Handle
  Surface 5,                              !- Name
  Wall,                                   !- Surface Type
  {4fe0ebfc-13f9-43fe-9982-23104be26650}, !- Construction Name
  {2e163852-eade-4d96-9eb0-1fbbaa51210e}, !- Space Name
  Outdoors,                               !- Outside Boundary Condition
  ,                                       !- Outside Boundary Condition Object
  SunExposed,                             !- Sun Exposure
  WindExposed,                            !- Wind Exposure
  ,                                       !- View Factor to Ground
  ,                                       !- Number of Vertices
  0, 0, 2.4384,                           !- X,Y,Z Vertex 1 {m}
  0, 0, 0,                                !- X,Y,Z Vertex 2 {m}
  13.6310703908387, 0, 0,                 !- X,Y,Z Vertex 3 {m}
  13.6310703908387, 0, 2.4384;            !- X,Y,Z Vertex 4 {m}

OS:Surface,
  {50046940-c1b1-47fd-b6de-fc22e745a6ce}, !- Handle
  Surface 6,                              !- Name
  RoofCeiling,                            !- Surface Type
  {944e7ace-58f3-444f-a41c-7c4498468840}, !- Construction Name
  {2e163852-eade-4d96-9eb0-1fbbaa51210e}, !- Space Name
  Surface,                                !- Outside Boundary Condition
  {a5e20459-038c-4464-83ba-350bb038aa8c}, !- Outside Boundary Condition Object
  NoSun,                                  !- Sun Exposure
  NoWind,                                 !- Wind Exposure
  ,                                       !- View Factor to Ground
  ,                                       !- Number of Vertices
  13.6310703908387, 0, 2.4384,            !- X,Y,Z Vertex 1 {m}
  13.6310703908387, 6.81553519541936, 2.4384, !- X,Y,Z Vertex 2 {m}
  0, 6.81553519541936, 2.4384,            !- X,Y,Z Vertex 3 {m}
  0, 0, 2.4384;                           !- X,Y,Z Vertex 4 {m}

OS:Space,
  {c0d45d46-998c-4cd8-9159-901cc7ca3ce5}, !- Handle
  living space|story 2,                   !- Name
  ,                                       !- Space Type Name
  ,                                       !- Default Construction Set Name
  ,                                       !- Default Schedule Set Name
  -0,                                     !- Direction of Relative North {deg}
  0,                                      !- X Origin {m}
  0,                                      !- Y Origin {m}
  2.4384,                                 !- Z Origin {m}
  ,                                       !- Building Story Name
  {8adf4143-4b9f-4d7c-b022-3e9240774a5e}, !- Thermal Zone Name
  ,                                       !- Part of Total Floor Area
  ,                                       !- Design Specification Outdoor Air Object Name
  {57f0ea23-8f18-4b21-8c41-f30098112b23}; !- Building Unit Name

OS:Surface,
  {a5e20459-038c-4464-83ba-350bb038aa8c}, !- Handle
  Surface 7,                              !- Name
  Floor,                                  !- Surface Type
  {944e7ace-58f3-444f-a41c-7c4498468840}, !- Construction Name
  {c0d45d46-998c-4cd8-9159-901cc7ca3ce5}, !- Space Name
  Surface,                                !- Outside Boundary Condition
  {50046940-c1b1-47fd-b6de-fc22e745a6ce}, !- Outside Boundary Condition Object
  NoSun,                                  !- Sun Exposure
  NoWind,                                 !- Wind Exposure
  ,                                       !- View Factor to Ground
  ,                                       !- Number of Vertices
  0, 0, 0,                                !- X,Y,Z Vertex 1 {m}
  0, 6.81553519541936, 0,                 !- X,Y,Z Vertex 2 {m}
  13.6310703908387, 6.81553519541936, 0,  !- X,Y,Z Vertex 3 {m}
  13.6310703908387, 0, 0;                 !- X,Y,Z Vertex 4 {m}

OS:Surface,
  {c805d8a3-9124-4127-bf52-17d65bec2f69}, !- Handle
  Surface 8,                              !- Name
  Wall,                                   !- Surface Type
  {4fe0ebfc-13f9-43fe-9982-23104be26650}, !- Construction Name
  {c0d45d46-998c-4cd8-9159-901cc7ca3ce5}, !- Space Name
  Outdoors,                               !- Outside Boundary Condition
  ,                                       !- Outside Boundary Condition Object
  SunExposed,                             !- Sun Exposure
  WindExposed,                            !- Wind Exposure
  ,                                       !- View Factor to Ground
  ,                                       !- Number of Vertices
  0, 6.81553519541936, 2.4384,            !- X,Y,Z Vertex 1 {m}
  0, 6.81553519541936, 0,                 !- X,Y,Z Vertex 2 {m}
  0, 0, 0,                                !- X,Y,Z Vertex 3 {m}
  0, 0, 2.4384;                           !- X,Y,Z Vertex 4 {m}

OS:Surface,
  {6ba297c1-2740-40a9-9505-c390b04c356d}, !- Handle
  Surface 9,                              !- Name
  Wall,                                   !- Surface Type
  {4fe0ebfc-13f9-43fe-9982-23104be26650}, !- Construction Name
  {c0d45d46-998c-4cd8-9159-901cc7ca3ce5}, !- Space Name
  Outdoors,                               !- Outside Boundary Condition
  ,                                       !- Outside Boundary Condition Object
  SunExposed,                             !- Sun Exposure
  WindExposed,                            !- Wind Exposure
  ,                                       !- View Factor to Ground
  ,                                       !- Number of Vertices
  13.6310703908387, 6.81553519541936, 2.4384, !- X,Y,Z Vertex 1 {m}
  13.6310703908387, 6.81553519541936, 0,  !- X,Y,Z Vertex 2 {m}
  0, 6.81553519541936, 0,                 !- X,Y,Z Vertex 3 {m}
  0, 6.81553519541936, 2.4384;            !- X,Y,Z Vertex 4 {m}

OS:Surface,
  {e1c8f895-592f-40c4-b620-53e9cee51e8d}, !- Handle
  Surface 10,                             !- Name
  Wall,                                   !- Surface Type
  {4fe0ebfc-13f9-43fe-9982-23104be26650}, !- Construction Name
  {c0d45d46-998c-4cd8-9159-901cc7ca3ce5}, !- Space Name
  Outdoors,                               !- Outside Boundary Condition
  ,                                       !- Outside Boundary Condition Object
  SunExposed,                             !- Sun Exposure
  WindExposed,                            !- Wind Exposure
  ,                                       !- View Factor to Ground
  ,                                       !- Number of Vertices
  13.6310703908387, 0, 2.4384,            !- X,Y,Z Vertex 1 {m}
  13.6310703908387, 0, 0,                 !- X,Y,Z Vertex 2 {m}
  13.6310703908387, 6.81553519541936, 0,  !- X,Y,Z Vertex 3 {m}
  13.6310703908387, 6.81553519541936, 2.4384; !- X,Y,Z Vertex 4 {m}

OS:Surface,
  {7b3ec792-76bc-4bdd-8636-58baeeac2f7f}, !- Handle
  Surface 11,                             !- Name
  Wall,                                   !- Surface Type
  {4fe0ebfc-13f9-43fe-9982-23104be26650}, !- Construction Name
  {c0d45d46-998c-4cd8-9159-901cc7ca3ce5}, !- Space Name
  Outdoors,                               !- Outside Boundary Condition
  ,                                       !- Outside Boundary Condition Object
  SunExposed,                             !- Sun Exposure
  WindExposed,                            !- Wind Exposure
  ,                                       !- View Factor to Ground
  ,                                       !- Number of Vertices
  0, 0, 2.4384,                           !- X,Y,Z Vertex 1 {m}
  0, 0, 0,                                !- X,Y,Z Vertex 2 {m}
  13.6310703908387, 0, 0,                 !- X,Y,Z Vertex 3 {m}
  13.6310703908387, 0, 2.4384;            !- X,Y,Z Vertex 4 {m}

OS:Surface,
  {9b2b4ff6-e58b-42a1-a970-53778701c38f}, !- Handle
  Surface 12,                             !- Name
  RoofCeiling,                            !- Surface Type
  {67cf11c9-09cd-472d-9bba-d0680b79a9f0}, !- Construction Name
  {c0d45d46-998c-4cd8-9159-901cc7ca3ce5}, !- Space Name
  Surface,                                !- Outside Boundary Condition
  {48fc88c9-8bf3-40b6-afcf-f9a9e6e7d0cb}, !- Outside Boundary Condition Object
  NoSun,                                  !- Sun Exposure
  NoWind,                                 !- Wind Exposure
  ,                                       !- View Factor to Ground
  ,                                       !- Number of Vertices
  13.6310703908387, 0, 2.4384,            !- X,Y,Z Vertex 1 {m}
  13.6310703908387, 6.81553519541936, 2.4384, !- X,Y,Z Vertex 2 {m}
  0, 6.81553519541936, 2.4384,            !- X,Y,Z Vertex 3 {m}
  0, 0, 2.4384;                           !- X,Y,Z Vertex 4 {m}

OS:Surface,
  {48fc88c9-8bf3-40b6-afcf-f9a9e6e7d0cb}, !- Handle
  Surface 13,                             !- Name
  Floor,                                  !- Surface Type
  {bc0712c8-3451-45ee-b2d3-4fa21917e734}, !- Construction Name
  {e0ddb068-87a0-4159-8310-8bb3ea262fc3}, !- Space Name
  Surface,                                !- Outside Boundary Condition
  {9b2b4ff6-e58b-42a1-a970-53778701c38f}, !- Outside Boundary Condition Object
  NoSun,                                  !- Sun Exposure
  NoWind,                                 !- Wind Exposure
  ,                                       !- View Factor to Ground
  ,                                       !- Number of Vertices
  0, 6.81553519541936, 0,                 !- X,Y,Z Vertex 1 {m}
  13.6310703908387, 6.81553519541936, 0,  !- X,Y,Z Vertex 2 {m}
  13.6310703908387, 0, 0,                 !- X,Y,Z Vertex 3 {m}
  0, 0, 0;                                !- X,Y,Z Vertex 4 {m}

OS:Surface,
  {7bbdefc9-9ba5-44b1-979e-d946238bae05}, !- Handle
  Surface 14,                             !- Name
  RoofCeiling,                            !- Surface Type
  {074b6513-c7eb-497b-becf-ada0d64969d4}, !- Construction Name
  {e0ddb068-87a0-4159-8310-8bb3ea262fc3}, !- Space Name
  Outdoors,                               !- Outside Boundary Condition
  ,                                       !- Outside Boundary Condition Object
  SunExposed,                             !- Sun Exposure
  WindExposed,                            !- Wind Exposure
  ,                                       !- View Factor to Ground
  ,                                       !- Number of Vertices
  13.6310703908387, 3.40776759770968, 1.70388379885484, !- X,Y,Z Vertex 1 {m}
  0, 3.40776759770968, 1.70388379885484,  !- X,Y,Z Vertex 2 {m}
  0, 0, 0,                                !- X,Y,Z Vertex 3 {m}
  13.6310703908387, 0, 0;                 !- X,Y,Z Vertex 4 {m}

OS:Surface,
  {d24b6d15-dcc1-4b8b-89da-f58b1194dbc0}, !- Handle
  Surface 15,                             !- Name
  RoofCeiling,                            !- Surface Type
  {074b6513-c7eb-497b-becf-ada0d64969d4}, !- Construction Name
  {e0ddb068-87a0-4159-8310-8bb3ea262fc3}, !- Space Name
  Outdoors,                               !- Outside Boundary Condition
  ,                                       !- Outside Boundary Condition Object
  SunExposed,                             !- Sun Exposure
  WindExposed,                            !- Wind Exposure
  ,                                       !- View Factor to Ground
  ,                                       !- Number of Vertices
  0, 3.40776759770968, 1.70388379885484,  !- X,Y,Z Vertex 1 {m}
  13.6310703908387, 3.40776759770968, 1.70388379885484, !- X,Y,Z Vertex 2 {m}
  13.6310703908387, 6.81553519541936, 0,  !- X,Y,Z Vertex 3 {m}
  0, 6.81553519541936, 0;                 !- X,Y,Z Vertex 4 {m}

OS:Surface,
  {5e165ce8-97bf-4bdd-b2a3-96969ead2754}, !- Handle
  Surface 16,                             !- Name
  Wall,                                   !- Surface Type
  {18e88a6a-0279-425a-b026-2703627e318e}, !- Construction Name
  {e0ddb068-87a0-4159-8310-8bb3ea262fc3}, !- Space Name
  Outdoors,                               !- Outside Boundary Condition
  ,                                       !- Outside Boundary Condition Object
  SunExposed,                             !- Sun Exposure
  WindExposed,                            !- Wind Exposure
  ,                                       !- View Factor to Ground
  ,                                       !- Number of Vertices
  0, 3.40776759770968, 1.70388379885484,  !- X,Y,Z Vertex 1 {m}
  0, 6.81553519541936, 0,                 !- X,Y,Z Vertex 2 {m}
  0, 0, 0;                                !- X,Y,Z Vertex 3 {m}

OS:Surface,
  {80a052a3-0b35-4b1e-8a70-40f7150b5c6d}, !- Handle
  Surface 17,                             !- Name
  Wall,                                   !- Surface Type
  {18e88a6a-0279-425a-b026-2703627e318e}, !- Construction Name
  {e0ddb068-87a0-4159-8310-8bb3ea262fc3}, !- Space Name
  Outdoors,                               !- Outside Boundary Condition
  ,                                       !- Outside Boundary Condition Object
  SunExposed,                             !- Sun Exposure
  WindExposed,                            !- Wind Exposure
  ,                                       !- View Factor to Ground
  ,                                       !- Number of Vertices
  13.6310703908387, 3.40776759770968, 1.70388379885484, !- X,Y,Z Vertex 1 {m}
  13.6310703908387, 0, 0,                 !- X,Y,Z Vertex 2 {m}
  13.6310703908387, 6.81553519541936, 0;  !- X,Y,Z Vertex 3 {m}

OS:Space,
  {e0ddb068-87a0-4159-8310-8bb3ea262fc3}, !- Handle
  unfinished attic space,                 !- Name
  ,                                       !- Space Type Name
  ,                                       !- Default Construction Set Name
  ,                                       !- Default Schedule Set Name
  -0,                                     !- Direction of Relative North {deg}
  0,                                      !- X Origin {m}
  0,                                      !- Y Origin {m}
  4.8768,                                 !- Z Origin {m}
  ,                                       !- Building Story Name
  {169ae07c-b342-439a-9bd0-f124c913d40a}, !- Thermal Zone Name
  ,                                       !- Part of Total Floor Area
  ,                                       !- Design Specification Outdoor Air Object Name
  {57f0ea23-8f18-4b21-8c41-f30098112b23}; !- Building Unit Name

OS:ThermalZone,
  {169ae07c-b342-439a-9bd0-f124c913d40a}, !- Handle
  unfinished attic zone,                  !- Name
  ,                                       !- Multiplier
  ,                                       !- Ceiling Height {m}
  ,                                       !- Volume {m3}
  ,                                       !- Floor Area {m2}
  ,                                       !- Zone Inside Convection Algorithm
  ,                                       !- Zone Outside Convection Algorithm
  ,                                       !- Zone Conditioning Equipment List Name
  {a0bf2845-993c-44fb-9a53-6315a0948a11}, !- Zone Air Inlet Port List
  {a431ba3d-5d8f-49f2-9ca0-11c93f61f3af}, !- Zone Air Exhaust Port List
  {d2c8916d-f83d-473e-a888-ab37376bd0c8}, !- Zone Air Node Name
  ,                                       !- Zone Return Air Node Name
  ,                                       !- Primary Daylighting Control Name
  ,                                       !- Fraction of Zone Controlled by Primary Daylighting Control
  ,                                       !- Secondary Daylighting Control Name
  ,                                       !- Fraction of Zone Controlled by Secondary Daylighting Control
  ,                                       !- Illuminance Map Name
  ,                                       !- Group Rendering Name
  ,                                       !- Thermostat Name
  No;                                     !- Use Ideal Air Loads

OS:Node,
  {7d1aeea9-0367-412f-86d0-688f0a98f994}, !- Handle
  Node 2,                                 !- Name
  {d2c8916d-f83d-473e-a888-ab37376bd0c8}, !- Inlet Port
  ;                                       !- Outlet Port

OS:Connection,
  {d2c8916d-f83d-473e-a888-ab37376bd0c8}, !- Handle
  {19d9a9b6-60a3-4c44-92ec-0aacef835bc5}, !- Name
  {169ae07c-b342-439a-9bd0-f124c913d40a}, !- Source Object
  11,                                     !- Outlet Port
  {7d1aeea9-0367-412f-86d0-688f0a98f994}, !- Target Object
  2;                                      !- Inlet Port

OS:PortList,
  {a0bf2845-993c-44fb-9a53-6315a0948a11}, !- Handle