!- NOTE: Auto-generated from /test/osw_files/SFD_2000sqft_2story_SL_UA_AllLayersButWallSheathing_CeilingIns.osw

OS:Version,
  {40d184e2-5511-4efc-9561-10db492dd3d1}, !- Handle
  2.2.1;                                  !- Version Identifier

OS:Building,
  {bf305633-c5a1-4881-9edf-ca5e1a8e1274}, !- Handle
  Building,                               !- Name
  ,                                       !- Building Sector Type
  ,                                       !- North Axis {deg}
  ,                                       !- Nominal Floor to Floor Height {m}
  ,                                       !- Space Type Name
  ,                                       !- Default Construction Set Name
  ,                                       !- Default Schedule Set Name
  2,                                      !- Standards Number of Stories
  2,                                      !- Standards Number of Above Ground Stories
  singlefamilydetached,                   !- Standards Building Type
  1;                                      !- Standards Number of Living Units

OS:YearDescription,
  {513d8dda-86cb-442a-b01c-1f7f0e0ac70e}; !- Handle

OS:SimulationControl,
  {2c487a4c-bac9-4ac5-b669-1e49d9da7c2b}, !- Handle
  ,                                       !- Do Zone Sizing Calculation
  ,                                       !- Do System Sizing Calculation
  ,                                       !- Do Plant Sizing Calculation
  No,                                     !- Run Simulation for Sizing Periods
  ;                                       !- Run Simulation for Weather File Run Periods

OS:Timestep,
  {4ebc9f1e-4707-402e-9844-67eb1ffbd522}, !- Handle
  6;                                      !- Number of Timesteps per Hour

OS:RunPeriod,
  {28df894d-6af9-4fb8-8f56-df1753344aa3}, !- Handle
  Run Period,                             !- Name
  1,                                      !- Begin Month
  1,                                      !- Begin Day of Month
  12,                                     !- End Month
  31,                                     !- End Day of Month
  ,                                       !- Use Weather File Holidays and Special Days
  ,                                       !- Use Weather File Daylight Saving Period
  ,                                       !- Apply Weekend Holiday Rule
  ,                                       !- Use Weather File Rain Indicators
  ,                                       !- Use Weather File Snow Indicators
  ;                                       !- Number of Times Runperiod to be Repeated

OS:Sizing:Parameters,
  {dde5af6f-7923-4600-a28a-7556673a0266}, !- Handle
  1.0,                                    !- Heating Sizing Factor
  1.0;                                    !- Cooling Sizing Factor

OS:ShadowCalculation,
  {ca758bea-4416-4626-9bba-3d8795c79bd6}, !- Handle
  20,                                     !- Calculation Frequency
  200;                                    !- Maximum Figures in Shadow Overlap Calculations

OS:SurfaceConvectionAlgorithm:Inside,
  {aaabfc36-718a-4ab0-b622-f186ebb45230}, !- Handle
  TARP;                                   !- Algorithm

OS:SurfaceConvectionAlgorithm:Outside,
  {9a0a9f6f-4bbd-4b12-a121-9492a1fcd7d6}, !- Handle
  DOE-2;                                  !- Algorithm

OS:HeatBalanceAlgorithm,
  {9d93e563-e1e0-46d7-9e39-d1c8aceb7212}, !- Handle
  ConductionTransferFunction,             !- Algorithm
  200;                                    !- Surface Temperature Upper Limit {C}

OS:ZoneCapacitanceMultiplier:ResearchSpecial,
  {6bfced16-b16f-47f6-8223-f7e267d75d19}, !- Handle
  ,                                       !- Temperature Capacity Multiplier
  15,                                     !- Humidity Capacity Multiplier
  ;                                       !- Carbon Dioxide Capacity Multiplier

OS:ThermalZone,
  {6bacbae1-ef14-4899-a533-b71345ab1432}, !- Handle
  living zone,                            !- Name
  ,                                       !- Multiplier
  ,                                       !- Ceiling Height {m}
  ,                                       !- Volume {m3}
  ,                                       !- Floor Area {m2}
  ,                                       !- Zone Inside Convection Algorithm
  ,                                       !- Zone Outside Convection Algorithm
  ,                                       !- Zone Conditioning Equipment List Name
  {8fb1ab81-d03a-46a2-abcd-c35bccae3549}, !- Zone Air Inlet Port List
  {fc2630e3-18d8-4324-b2e5-979732960f7f}, !- Zone Air Exhaust Port List
  {83946916-27f2-4dc1-817a-e2a8b9ca790f}, !- Zone Air Node Name
  ,                                       !- Zone Return Air Node Name
  ,                                       !- Primary Daylighting Control Name
  ,                                       !- Fraction of Zone Controlled by Primary Daylighting Control
  ,                                       !- Secondary Daylighting Control Name
  ,                                       !- Fraction of Zone Controlled by Secondary Daylighting Control
  ,                                       !- Illuminance Map Name
  ,                                       !- Group Rendering Name
  ,                                       !- Thermostat Name
  No;                                     !- Use Ideal Air Loads

OS:Node,
  {440b14cd-0867-4e72-9d6a-7a8cc8657635}, !- Handle
  Node 1,                                 !- Name
  {83946916-27f2-4dc1-817a-e2a8b9ca790f}, !- Inlet Port
  ;                                       !- Outlet Port

OS:Connection,
  {83946916-27f2-4dc1-817a-e2a8b9ca790f}, !- Handle
  {d7d8a194-22fc-4cd5-8d9f-1e43d9fb895a}, !- Name
  {6bacbae1-ef14-4899-a533-b71345ab1432}, !- Source Object
  11,                                     !- Outlet Port
  {440b14cd-0867-4e72-9d6a-7a8cc8657635}, !- Target Object
  2;                                      !- Inlet Port

OS:PortList,
  {8fb1ab81-d03a-46a2-abcd-c35bccae3549}, !- Handle
  {4488e4d7-1e5d-48a1-8d4f-cda7cf61ee46}, !- Name
  {6bacbae1-ef14-4899-a533-b71345ab1432}; !- HVAC Component

OS:PortList,
  {fc2630e3-18d8-4324-b2e5-979732960f7f}, !- Handle
  {b4a228ad-963b-4c7e-8939-f19a354bd5f0}, !- Name
  {6bacbae1-ef14-4899-a533-b71345ab1432}; !- HVAC Component

OS:Sizing:Zone,
  {50f0b16b-ee79-41f6-ac74-170764fd5560}, !- Handle
  {6bacbae1-ef14-4899-a533-b71345ab1432}, !- Zone or ZoneList Name
  SupplyAirTemperature,                   !- Zone Cooling Design Supply Air Temperature Input Method
  14,                                     !- Zone Cooling Design Supply Air Temperature {C}
  11.11,                                  !- Zone Cooling Design Supply Air Temperature Difference {deltaC}
  SupplyAirTemperature,                   !- Zone Heating Design Supply Air Temperature Input Method
  40,                                     !- Zone Heating Design Supply Air Temperature {C}
  11.11,                                  !- Zone Heating Design Supply Air Temperature Difference {deltaC}
  0.0085,                                 !- Zone Cooling Design Supply Air Humidity Ratio {kg-H2O/kg-air}
  0.008,                                  !- Zone Heating Design Supply Air Humidity Ratio {kg-H2O/kg-air}
  ,                                       !- Zone Heating Sizing Factor
  ,                                       !- Zone Cooling Sizing Factor
  DesignDay,                              !- Cooling Design Air Flow Method
  ,                                       !- Cooling Design Air Flow Rate {m3/s}
  ,                                       !- Cooling Minimum Air Flow per Zone Floor Area {m3/s-m2}
  ,                                       !- Cooling Minimum Air Flow {m3/s}
  ,                                       !- Cooling Minimum Air Flow Fraction
  DesignDay,                              !- Heating Design Air Flow Method
  ,                                       !- Heating Design Air Flow Rate {m3/s}
  ,                                       !- Heating Maximum Air Flow per Zone Floor Area {m3/s-m2}
  ,                                       !- Heating Maximum Air Flow {m3/s}
  ,                                       !- Heating Maximum Air Flow Fraction
  ,                                       !- Design Zone Air Distribution Effectiveness in Cooling Mode
  ,                                       !- Design Zone Air Distribution Effectiveness in Heating Mode
  No,                                     !- Account for Dedicated Outdoor Air System
  NeutralSupplyAir,                       !- Dedicated Outdoor Air System Control Strategy
  autosize,                               !- Dedicated Outdoor Air Low Setpoint Temperature for Design {C}
  autosize;                               !- Dedicated Outdoor Air High Setpoint Temperature for Design {C}

OS:ZoneHVAC:EquipmentList,
  {269306db-d841-481d-bd61-7ba1eb0899b1}, !- Handle
  Zone HVAC Equipment List 1,             !- Name
  {6bacbae1-ef14-4899-a533-b71345ab1432}; !- Thermal Zone

OS:Space,
  {360ad868-f809-4d85-a10d-fbe2d0b2bd4d}, !- Handle
  living space,                           !- Name
  ,                                       !- Space Type Name
  ,                                       !- Default Construction Set Name
  ,                                       !- Default Schedule Set Name
  -0,                                     !- Direction of Relative North {deg}
  0,                                      !- X Origin {m}
  0,                                      !- Y Origin {m}
  0,                                      !- Z Origin {m}
  ,                                       !- Building Story Name
  {6bacbae1-ef14-4899-a533-b71345ab1432}, !- Thermal Zone Name
  ,                                       !- Part of Total Floor Area
  ,                                       !- Design Specification Outdoor Air Object Name
  {5c6a08ed-1b77-4cf2-a60a-115cf69838f7}; !- Building Unit Name

OS:Surface,
  {93c66b3d-4295-4079-8121-6e00f514485e}, !- Handle
  Surface 1,                              !- Name
  Floor,                                  !- Surface Type
  ,                                       !- Construction Name
  {360ad868-f809-4d85-a10d-fbe2d0b2bd4d}, !- Space Name
  Ground,                                 !- Outside Boundary Condition
  ,                                       !- Outside Boundary Condition Object
  NoSun,                                  !- Sun Exposure
  NoWind,                                 !- Wind Exposure
  ,                                       !- View Factor to Ground
  ,                                       !- Number of Vertices
  0, 0, 0,                                !- X,Y,Z Vertex 1 {m}
  0, 6.81553519541936, 0,                 !- X,Y,Z Vertex 2 {m}
  13.6310703908387, 6.81553519541936, 0,  !- X,Y,Z Vertex 3 {m}
  13.6310703908387, 0, 0;                 !- X,Y,Z Vertex 4 {m}

OS:Surface,
  {6e9ff02a-b6a4-4d51-b444-5e3f765c4736}, !- Handle
  Surface 2,                              !- Name
  Wall,                                   !- Surface Type
  {5470a095-1dcf-4d64-84ec-a2b72ccb7553}, !- Construction Name
  {360ad868-f809-4d85-a10d-fbe2d0b2bd4d}, !- Space Name
  Outdoors,                               !- Outside Boundary Condition
  ,                                       !- Outside Boundary Condition Object
  SunExposed,                             !- Sun Exposure
  WindExposed,                            !- Wind Exposure
  ,                                       !- View Factor to Ground
  ,                                       !- Number of Vertices
  0, 6.81553519541936, 2.4384,            !- X,Y,Z Vertex 1 {m}
  0, 6.81553519541936, 0,                 !- X,Y,Z Vertex 2 {m}
  0, 0, 0,                                !- X,Y,Z Vertex 3 {m}
  0, 0, 2.4384;                           !- X,Y,Z Vertex 4 {m}

OS:Surface,
  {c4d49f11-175f-4fe1-b0d7-4cd2a8be0a8a}, !- Handle
  Surface 3,                              !- Name
  Wall,                                   !- Surface Type
  {5470a095-1dcf-4d64-84ec-a2b72ccb7553}, !- Construction Name
  {360ad868-f809-4d85-a10d-fbe2d0b2bd4d}, !- Space Name
  Outdoors,                               !- Outside Boundary Condition
  ,                                       !- Outside Boundary Condition Object
  SunExposed,                             !- Sun Exposure
  WindExposed,                            !- Wind Exposure
  ,                                       !- View Factor to Ground
  ,                                       !- Number of Vertices
  13.6310703908387, 6.81553519541936, 2.4384, !- X,Y,Z Vertex 1 {m}
  13.6310703908387, 6.81553519541936, 0,  !- X,Y,Z Vertex 2 {m}
  0, 6.81553519541936, 0,                 !- X,Y,Z Vertex 3 {m}
  0, 6.81553519541936, 2.4384;            !- X,Y,Z Vertex 4 {m}

OS:Surface,
  {969ab467-a391-4de9-9d86-8a3c35d008a5}, !- Handle
  Surface 4,                              !- Name
  Wall,                                   !- Surface Type
  {5470a095-1dcf-4d64-84ec-a2b72ccb7553}, !- Construction Name
  {360ad868-f809-4d85-a10d-fbe2d0b2bd4d}, !- Space Name
  Outdoors,                               !- Outside Boundary Condition
  ,                                       !- Outside Boundary Condition Object
  SunExposed,                             !- Sun Exposure
  WindExposed,                            !- Wind Exposure
  ,                                       !- View Factor to Ground
  ,                                       !- Number of Vertices
  13.6310703908387, 0, 2.4384,            !- X,Y,Z Vertex 1 {m}
  13.6310703908387, 0, 0,                 !- X,Y,Z Vertex 2 {m}
  13.6310703908387, 6.81553519541936, 0,  !- X,Y,Z Vertex 3 {m}
  13.6310703908387, 6.81553519541936, 2.4384; !- X,Y,Z Vertex 4 {m}

OS:Surface,
  {b11fa860-8059-4909-8305-6d71e5db15e0}, !- Handle
  Surface 5,                              !- Name
  Wall,                                   !- Surface Type
  {5470a095-1dcf-4d64-84ec-a2b72ccb7553}, !- Construction Name
  {360ad868-f809-4d85-a10d-fbe2d0b2bd4d}, !- Space Name
  Outdoors,                               !- Outside Boundary Condition
  ,                                       !- Outside Boundary Condition Object
  SunExposed,                             !- Sun Exposure
  WindExposed,                            !- Wind Exposure
  ,                                       !- View Factor to Ground
  ,                                       !- Number of Vertices
  0, 0, 2.4384,                           !- X,Y,Z Vertex 1 {m}
  0, 0, 0,                                !- X,Y,Z Vertex 2 {m}
  13.6310703908387, 0, 0,                 !- X,Y,Z Vertex 3 {m}
  13.6310703908387, 0, 2.4384;            !- X,Y,Z Vertex 4 {m}

OS:Surface,
  {1c034dbc-bf88-4f45-bec7-f6b4967ec3bf}, !- Handle
  Surface 6,                              !- Name
  RoofCeiling,                            !- Surface Type
  {28518bf8-d112-44f7-a2cd-bd73c9d4737c}, !- Construction Name
  {360ad868-f809-4d85-a10d-fbe2d0b2bd4d}, !- Space Name
  Surface,                                !- Outside Boundary Condition
  {5ee979e4-8984-4a65-92d6-99c9857d90ca}, !- Outside Boundary Condition Object
  NoSun,                                  !- Sun Exposure
  NoWind,                                 !- Wind Exposure
  ,                                       !- View Factor to Ground
  ,                                       !- Number of Vertices
  13.6310703908387, 0, 2.4384,            !- X,Y,Z Vertex 1 {m}
  13.6310703908387, 6.81553519541936, 2.4384, !- X,Y,Z Vertex 2 {m}
  0, 6.81553519541936, 2.4384,            !- X,Y,Z Vertex 3 {m}
  0, 0, 2.4384;                           !- X,Y,Z Vertex 4 {m}

OS:Space,
  {70240b75-ade1-4cb9-9e07-d54c85a612bc}, !- Handle
  living space|story 2,                   !- Name
  ,                                       !- Space Type Name
  ,                                       !- Default Construction Set Name
  ,                                       !- Default Schedule Set Name
  -0,                                     !- Direction of Relative North {deg}
  0,                                      !- X Origin {m}
  0,                                      !- Y Origin {m}
  2.4384,                                 !- Z Origin {m}
  ,                                       !- Building Story Name
  {6bacbae1-ef14-4899-a533-b71345ab1432}, !- Thermal Zone Name
  ,                                       !- Part of Total Floor Area
  ,                                       !- Design Specification Outdoor Air Object Name
  {5c6a08ed-1b77-4cf2-a60a-115cf69838f7}; !- Building Unit Name

OS:Surface,
  {5ee979e4-8984-4a65-92d6-99c9857d90ca}, !- Handle
  Surface 7,                              !- Name
  Floor,                                  !- Surface Type
  {28518bf8-d112-44f7-a2cd-bd73c9d4737c}, !- Construction Name
  {70240b75-ade1-4cb9-9e07-d54c85a612bc}, !- Space Name
  Surface,                                !- Outside Boundary Condition
  {1c034dbc-bf88-4f45-bec7-f6b4967ec3bf}, !- Outside Boundary Condition Object
  NoSun,                                  !- Sun Exposure
  NoWind,                                 !- Wind Exposure
  ,                                       !- View Factor to Ground
  ,                                       !- Number of Vertices
  0, 0, 0,                                !- X,Y,Z Vertex 1 {m}
  0, 6.81553519541936, 0,                 !- X,Y,Z Vertex 2 {m}
  13.6310703908387, 6.81553519541936, 0,  !- X,Y,Z Vertex 3 {m}
  13.6310703908387, 0, 0;                 !- X,Y,Z Vertex 4 {m}

OS:Surface,
  {2f74590f-6cb7-4c37-bb31-5b67d9035605}, !- Handle
  Surface 8,                              !- Name
  Wall,                                   !- Surface Type
  {5470a095-1dcf-4d64-84ec-a2b72ccb7553}, !- Construction Name
  {70240b75-ade1-4cb9-9e07-d54c85a612bc}, !- Space Name
  Outdoors,                               !- Outside Boundary Condition
  ,                                       !- Outside Boundary Condition Object
  SunExposed,                             !- Sun Exposure
  WindExposed,                            !- Wind Exposure
  ,                                       !- View Factor to Ground
  ,                                       !- Number of Vertices
  0, 6.81553519541936, 2.4384,            !- X,Y,Z Vertex 1 {m}
  0, 6.81553519541936, 0,                 !- X,Y,Z Vertex 2 {m}
  0, 0, 0,                                !- X,Y,Z Vertex 3 {m}
  0, 0, 2.4384;                           !- X,Y,Z Vertex 4 {m}

OS:Surface,
  {3563b0cf-b1b8-405f-b21c-9c86167168e0}, !- Handle
  Surface 9,                              !- Name
  Wall,                                   !- Surface Type
  {5470a095-1dcf-4d64-84ec-a2b72ccb7553}, !- Construction Name
  {70240b75-ade1-4cb9-9e07-d54c85a612bc}, !- Space Name
  Outdoors,                               !- Outside Boundary Condition
  ,                                       !- Outside Boundary Condition Object
  SunExposed,                             !- Sun Exposure
  WindExposed,                            !- Wind Exposure
  ,                                       !- View Factor to Ground
  ,                                       !- Number of Vertices
  13.6310703908387, 6.81553519541936, 2.4384, !- X,Y,Z Vertex 1 {m}
  13.6310703908387, 6.81553519541936, 0,  !- X,Y,Z Vertex 2 {m}
  0, 6.81553519541936, 0,                 !- X,Y,Z Vertex 3 {m}
  0, 6.81553519541936, 2.4384;            !- X,Y,Z Vertex 4 {m}

OS:Surface,
  {d2a0c1d9-aa5d-499a-b53a-8c308b8d06a1}, !- Handle
  Surface 10,                             !- Name
  Wall,                                   !- Surface Type
  {5470a095-1dcf-4d64-84ec-a2b72ccb7553}, !- Construction Name
  {70240b75-ade1-4cb9-9e07-d54c85a612bc}, !- Space Name
  Outdoors,                               !- Outside Boundary Condition
  ,                                       !- Outside Boundary Condition Object
  SunExposed,                             !- Sun Exposure
  WindExposed,                            !- Wind Exposure
  ,                                       !- View Factor to Ground
  ,                                       !- Number of Vertices
  13.6310703908387, 0, 2.4384,            !- X,Y,Z Vertex 1 {m}
  13.6310703908387, 0, 0,                 !- X,Y,Z Vertex 2 {m}
  13.6310703908387, 6.81553519541936, 0,  !- X,Y,Z Vertex 3 {m}
  13.6310703908387, 6.81553519541936, 2.4384; !- X,Y,Z Vertex 4 {m}

OS:Surface,
  {19f7bd25-313e-48e5-a81b-c91b5aaa3adc}, !- Handle
  Surface 11,                             !- Name
  Wall,                                   !- Surface Type
  {5470a095-1dcf-4d64-84ec-a2b72ccb7553}, !- Construction Name
  {70240b75-ade1-4cb9-9e07-d54c85a612bc}, !- Space Name
  Outdoors,                               !- Outside Boundary Condition
  ,                                       !- Outside Boundary Condition Object
  SunExposed,                             !- Sun Exposure
  WindExposed,                            !- Wind Exposure
  ,                                       !- View Factor to Ground
  ,                                       !- Number of Vertices
  0, 0, 2.4384,                           !- X,Y,Z Vertex 1 {m}
  0, 0, 0,                                !- X,Y,Z Vertex 2 {m}
  13.6310703908387, 0, 0,                 !- X,Y,Z Vertex 3 {m}
  13.6310703908387, 0, 2.4384;            !- X,Y,Z Vertex 4 {m}

OS:Surface,
  {70fd89d0-e93c-46bc-8c34-d90e94a714ce}, !- Handle
  Surface 12,                             !- Name
  RoofCeiling,                            !- Surface Type
  {adcbf299-3e2d-42d8-81c2-ff8bf6f55bde}, !- Construction Name
  {70240b75-ade1-4cb9-9e07-d54c85a612bc}, !- Space Name
  Surface,                                !- Outside Boundary Condition
  {35cbce68-e53f-4d8d-b89f-6b0a859e7deb}, !- Outside Boundary Condition Object
  NoSun,                                  !- Sun Exposure
  NoWind,                                 !- Wind Exposure
  ,                                       !- View Factor to Ground
  ,                                       !- Number of Vertices
  13.6310703908387, 0, 2.4384,            !- X,Y,Z Vertex 1 {m}
  13.6310703908387, 6.81553519541936, 2.4384, !- X,Y,Z Vertex 2 {m}
  0, 6.81553519541936, 2.4384,            !- X,Y,Z Vertex 3 {m}
  0, 0, 2.4384;                           !- X,Y,Z Vertex 4 {m}

OS:Surface,
  {35cbce68-e53f-4d8d-b89f-6b0a859e7deb}, !- Handle
  Surface 13,                             !- Name
  Floor,                                  !- Surface Type
  {39703d52-1be0-4fd8-9cba-378cc1efd74f}, !- Construction Name
  {27a915ff-ddaa-487b-91dc-a15e8c227aa8}, !- Space Name
  Surface,                                !- Outside Boundary Condition
  {70fd89d0-e93c-46bc-8c34-d90e94a714ce}, !- Outside Boundary Condition Object
  NoSun,                                  !- Sun Exposure
  NoWind,                                 !- Wind Exposure
  ,                                       !- View Factor to Ground
  ,                                       !- Number of Vertices
  0, 6.81553519541936, 0,                 !- X,Y,Z Vertex 1 {m}
  13.6310703908387, 6.81553519541936, 0,  !- X,Y,Z Vertex 2 {m}
  13.6310703908387, 0, 0,                 !- X,Y,Z Vertex 3 {m}
  0, 0, 0;                                !- X,Y,Z Vertex 4 {m}

OS:Surface,
  {3e9bac51-c527-46d1-997a-074411876205}, !- Handle
  Surface 14,                             !- Name
  RoofCeiling,                            !- Surface Type
  {8f56ba73-bf2f-463e-85b2-20a49af52fb5}, !- Construction Name
  {27a915ff-ddaa-487b-91dc-a15e8c227aa8}, !- Space Name
  Outdoors,                               !- Outside Boundary Condition
  ,                                       !- Outside Boundary Condition Object
  SunExposed,                             !- Sun Exposure
  WindExposed,                            !- Wind Exposure
  ,                                       !- View Factor to Ground
  ,                                       !- Number of Vertices
  13.6310703908387, 3.40776759770968, 1.70388379885484, !- X,Y,Z Vertex 1 {m}
  0, 3.40776759770968, 1.70388379885484,  !- X,Y,Z Vertex 2 {m}
  0, 0, 0,                                !- X,Y,Z Vertex 3 {m}
  13.6310703908387, 0, 0;                 !- X,Y,Z Vertex 4 {m}

OS:Surface,
  {0cc5f5e7-f2b8-4052-bd3c-5f3f3cbb6bb6}, !- Handle
  Surface 15,                             !- Name
  RoofCeiling,                            !- Surface Type
  {8f56ba73-bf2f-463e-85b2-20a49af52fb5}, !- Construction Name
  {27a915ff-ddaa-487b-91dc-a15e8c227aa8}, !- Space Name
  Outdoors,                               !- Outside Boundary Condition
  ,                                       !- Outside Boundary Condition Object
  SunExposed,                             !- Sun Exposure
  WindExposed,                            !- Wind Exposure
  ,                                       !- View Factor to Ground
  ,                                       !- Number of Vertices
  0, 3.40776759770968, 1.70388379885484,  !- X,Y,Z Vertex 1 {m}
  13.6310703908387, 3.40776759770968, 1.70388379885484, !- X,Y,Z Vertex 2 {m}
  13.6310703908387, 6.81553519541936, 0,  !- X,Y,Z Vertex 3 {m}
  0, 6.81553519541936, 0;                 !- X,Y,Z Vertex 4 {m}

OS:Surface,
  {cce3f05f-2da0-40ab-abd6-6cbfdb6b72c3}, !- Handle
  Surface 16,                             !- Name
  Wall,                                   !- Surface Type
  {a4b5c1f4-1974-49d0-bf42-9949c144d28b}, !- Construction Name
  {27a915ff-ddaa-487b-91dc-a15e8c227aa8}, !- Space Name
  Outdoors,                               !- Outside Boundary Condition
  ,                                       !- Outside Boundary Condition Object
  SunExposed,                             !- Sun Exposure
  WindExposed,                            !- Wind Exposure
  ,                                       !- View Factor to Ground
  ,                                       !- Number of Vertices
  0, 3.40776759770968, 1.70388379885484,  !- X,Y,Z Vertex 1 {m}
  0, 6.81553519541936, 0,                 !- X,Y,Z Vertex 2 {m}
  0, 0, 0;                                !- X,Y,Z Vertex 3 {m}

OS:Surface,
  {1bcd005b-356f-45fa-957c-575fc1e0ff1a}, !- Handle
  Surface 17,                             !- Name
  Wall,                                   !- Surface Type
  {a4b5c1f4-1974-49d0-bf42-9949c144d28b}, !- Construction Name
  {27a915ff-ddaa-487b-91dc-a15e8c227aa8}, !- Space Name
  Outdoors,                               !- Outside Boundary Condition
  ,                                       !- Outside Boundary Condition Object
  SunExposed,                             !- Sun Exposure
  WindExposed,                            !- Wind Exposure
  ,                                       !- View Factor to Ground
  ,                                       !- Number of Vertices
  13.6310703908387, 3.40776759770968, 1.70388379885484, !- X,Y,Z Vertex 1 {m}
  13.6310703908387, 0, 0,                 !- X,Y,Z Vertex 2 {m}
  13.6310703908387, 6.81553519541936, 0;  !- X,Y,Z Vertex 3 {m}

OS:Space,
  {27a915ff-ddaa-487b-91dc-a15e8c227aa8}, !- Handle
  unfinished attic space,                 !- Name
  ,                                       !- Space Type Name
  ,                                       !- Default Construction Set Name
  ,                                       !- Default Schedule Set Name
  -0,                                     !- Direction of Relative North {deg}
  0,                                      !- X Origin {m}
  0,                                      !- Y Origin {m}
  4.8768,                                 !- Z Origin {m}
  ,                                       !- Building Story Name
  {335be380-aae7-477b-afbf-e9918a017201}, !- Thermal Zone Name
  ,                                       !- Part of Total Floor Area
  ,                                       !- Design Specification Outdoor Air Object Name
  {5c6a08ed-1b77-4cf2-a60a-115cf69838f7}; !- Building Unit Name

OS:ThermalZone,
  {335be380-aae7-477b-afbf-e9918a017201}, !- Handle
  unfinished attic zone,                  !- Name
  ,                                       !- Multiplier
  ,                                       !- Ceiling Height {m}
  ,                                       !- Volume {m3}
  ,                                       !- Floor Area {m2}
  ,                                       !- Zone Inside Convection Algorithm
  ,                                       !- Zone Outside Convection Algorithm
  ,                                       !- Zone Conditioning Equipment List Name
  {d30c53d5-569d-4e5c-be32-e4521ea916e0}, !- Zone Air Inlet Port List
  {41031273-b7db-40c7-aeb5-a90bfe4ca051}, !- Zone Air Exhaust Port List
  {f05cc3bc-c7f0-4fb6-b5ad-9c6dbd8dc29f}, !- Zone Air Node Name
  ,                                       !- Zone Return Air Node Name
  ,                                       !- Primary Daylighting Control Name
  ,                                       !- Fraction of Zone Controlled by Primary Daylighting Control
  ,                                       !- Secondary Daylighting Control Name
  ,                                       !- Fraction of Zone Controlled by Secondary Daylighting Control
  ,                                       !- Illuminance Map Name
  ,                                       !- Group Rendering Name
  ,                                       !- Thermostat Name
  No;                                     !- Use Ideal Air Loads

OS:Node,
  {c448879e-ce70-4706-8a7c-6b571ce46def}, !- Handle
  Node 2,                                 !- Name
  {f05cc3bc-c7f0-4fb6-b5ad-9c6dbd8dc29f}, !- Inlet Port
  ;                                       !- Outlet Port

OS:Connection,
  {f05cc3bc-c7f0-4fb6-b5ad-9c6dbd8dc29f}, !- Handle
  {606e8bff-4169-4aea-a0d7-f43eafee9932}, !- Name
  {335be380-aae7-477b-afbf-e9918a017201}, !- Source Object
  11,                                     !- Outlet Port
  {c448879e-ce70-4706-8a7c-6b571ce46def}, !- Target Object
  2;                                      !- Inlet Port

OS:PortList,
  {d30c53d5-569d-4e5c-be32-e4521ea916e0}, !- Handle