!- NOTE: Auto-generated from /test/osw_files/SFD_2000sqft_2story_SL_UA_AllLayersButWallSheathing_CeilingIns.osw

OS:Version,
  {6e8c107c-a31e-4a2a-b6c9-c35726de2b26}, !- Handle
  2.2.0;                                  !- Version Identifier

OS:Building,
  {bf305633-c5a1-4881-9edf-ca5e1a8e1274}, !- Handle
  Building,                               !- Name
  ,                                       !- Building Sector Type
  ,                                       !- North Axis {deg}
  ,                                       !- Nominal Floor to Floor Height {m}
  ,                                       !- Space Type Name
  ,                                       !- Default Construction Set Name
  ,                                       !- Default Schedule Set Name
  2,                                      !- Standards Number of Stories
  2,                                      !- Standards Number of Above Ground Stories
  singlefamilydetached,                   !- Standards Building Type
  1;                                      !- Standards Number of Living Units

OS:YearDescription,
  {513d8dda-86cb-442a-b01c-1f7f0e0ac70e}; !- Handle

OS:SimulationControl,
  {2c487a4c-bac9-4ac5-b669-1e49d9da7c2b}, !- Handle
  ,                                       !- Do Zone Sizing Calculation
  ,                                       !- Do System Sizing Calculation
  ,                                       !- Do Plant Sizing Calculation
  No,                                     !- Run Simulation for Sizing Periods
  ;                                       !- Run Simulation for Weather File Run Periods

OS:Timestep,
  {4ebc9f1e-4707-402e-9844-67eb1ffbd522}, !- Handle
  6;                                      !- Number of Timesteps per Hour

OS:RunPeriod,
  {28df894d-6af9-4fb8-8f56-df1753344aa3}, !- Handle
  Run Period,                             !- Name
  1,                                      !- Begin Month
  1,                                      !- Begin Day of Month
  12,                                     !- End Month
  31,                                     !- End Day of Month
  ,                                       !- Use Weather File Holidays and Special Days
  ,                                       !- Use Weather File Daylight Saving Period
  ,                                       !- Apply Weekend Holiday Rule
  ,                                       !- Use Weather File Rain Indicators
  ,                                       !- Use Weather File Snow Indicators
  ;                                       !- Number of Times Runperiod to be Repeated

OS:Sizing:Parameters,
  {dde5af6f-7923-4600-a28a-7556673a0266}, !- Handle
  1.0,                                    !- Heating Sizing Factor
  1.0;                                    !- Cooling Sizing Factor

OS:ShadowCalculation,
  {ca758bea-4416-4626-9bba-3d8795c79bd6}, !- Handle
  20,                                     !- Calculation Frequency
  200;                                    !- Maximum Figures in Shadow Overlap Calculations

OS:SurfaceConvectionAlgorithm:Inside,
  {aaabfc36-718a-4ab0-b622-f186ebb45230}, !- Handle
  TARP;                                   !- Algorithm

OS:SurfaceConvectionAlgorithm:Outside,
  {9a0a9f6f-4bbd-4b12-a121-9492a1fcd7d6}, !- Handle
  DOE-2;                                  !- Algorithm

OS:HeatBalanceAlgorithm,
  {9d93e563-e1e0-46d7-9e39-d1c8aceb7212}, !- Handle
  ConductionTransferFunction,             !- Algorithm
  200;                                    !- Surface Temperature Upper Limit {C}

OS:ZoneCapacitanceMultiplier:ResearchSpecial,
  {6bfced16-b16f-47f6-8223-f7e267d75d19}, !- Handle
  ,                                       !- Temperature Capacity Multiplier
  15,                                     !- Humidity Capacity Multiplier
  ;                                       !- Carbon Dioxide Capacity Multiplier

OS:ThermalZone,
  {9e4a645c-3b2f-47eb-b64b-106446fdb7bf}, !- Handle
  living zone,                            !- Name
  ,                                       !- Multiplier
  ,                                       !- Ceiling Height {m}
  ,                                       !- Volume {m3}
  ,                                       !- Floor Area {m2}
  ,                                       !- Zone Inside Convection Algorithm
  ,                                       !- Zone Outside Convection Algorithm
  ,                                       !- Zone Conditioning Equipment List Name
  {beb31db1-3c4a-4370-8bf3-4fab6d7ba1e1}, !- Zone Air Inlet Port List
  {7ecca529-aadc-4a5a-808c-d40f74cd992f}, !- Zone Air Exhaust Port List
  {c9737711-0e34-4ff4-9499-6ecb892da613}, !- Zone Air Node Name
  ,                                       !- Zone Return Air Node Name
  ,                                       !- Primary Daylighting Control Name
  ,                                       !- Fraction of Zone Controlled by Primary Daylighting Control
  ,                                       !- Secondary Daylighting Control Name
  ,                                       !- Fraction of Zone Controlled by Secondary Daylighting Control
  ,                                       !- Illuminance Map Name
  ,                                       !- Group Rendering Name
  ,                                       !- Thermostat Name
  No;                                     !- Use Ideal Air Loads

OS:Node,
  {d62dc477-59c8-41af-a891-43cbe2bb13df}, !- Handle
  Node 1,                                 !- Name
  {c9737711-0e34-4ff4-9499-6ecb892da613}, !- Inlet Port
  ;                                       !- Outlet Port

OS:Connection,
  {c9737711-0e34-4ff4-9499-6ecb892da613}, !- Handle
  {ee7e8c16-1b97-4537-991a-307d17086368}, !- Name
  {9e4a645c-3b2f-47eb-b64b-106446fdb7bf}, !- Source Object
  11,                                     !- Outlet Port
  {d62dc477-59c8-41af-a891-43cbe2bb13df}, !- Target Object
  2;                                      !- Inlet Port

OS:PortList,
  {beb31db1-3c4a-4370-8bf3-4fab6d7ba1e1}, !- Handle
  {0f7820a5-511c-485b-9162-ae243ec51f26}, !- Name
  {9e4a645c-3b2f-47eb-b64b-106446fdb7bf}; !- HVAC Component

OS:PortList,
  {7ecca529-aadc-4a5a-808c-d40f74cd992f}, !- Handle
  {130d7bc9-c74c-47e2-9914-0f9f67f6e48f}, !- Name
  {9e4a645c-3b2f-47eb-b64b-106446fdb7bf}; !- HVAC Component

OS:Sizing:Zone,
  {363a6fa4-1592-4eeb-bdcc-717943b6e53d}, !- Handle
  {9e4a645c-3b2f-47eb-b64b-106446fdb7bf}, !- Zone or ZoneList Name
  SupplyAirTemperature,                   !- Zone Cooling Design Supply Air Temperature Input Method
  14,                                     !- Zone Cooling Design Supply Air Temperature {C}
  11.11,                                  !- Zone Cooling Design Supply Air Temperature Difference {deltaC}
  SupplyAirTemperature,                   !- Zone Heating Design Supply Air Temperature Input Method
  40,                                     !- Zone Heating Design Supply Air Temperature {C}
  11.11,                                  !- Zone Heating Design Supply Air Temperature Difference {deltaC}
  0.0085,                                 !- Zone Cooling Design Supply Air Humidity Ratio {kg-H2O/kg-air}
  0.008,                                  !- Zone Heating Design Supply Air Humidity Ratio {kg-H2O/kg-air}
  ,                                       !- Zone Heating Sizing Factor
  ,                                       !- Zone Cooling Sizing Factor
  DesignDay,                              !- Cooling Design Air Flow Method
  ,                                       !- Cooling Design Air Flow Rate {m3/s}
  ,                                       !- Cooling Minimum Air Flow per Zone Floor Area {m3/s-m2}
  ,                                       !- Cooling Minimum Air Flow {m3/s}
  ,                                       !- Cooling Minimum Air Flow Fraction
  DesignDay,                              !- Heating Design Air Flow Method
  ,                                       !- Heating Design Air Flow Rate {m3/s}
  ,                                       !- Heating Maximum Air Flow per Zone Floor Area {m3/s-m2}
  ,                                       !- Heating Maximum Air Flow {m3/s}
  ,                                       !- Heating Maximum Air Flow Fraction
  ,                                       !- Design Zone Air Distribution Effectiveness in Cooling Mode
  ,                                       !- Design Zone Air Distribution Effectiveness in Heating Mode
  No,                                     !- Account for Dedicated Outdoor Air System
  NeutralSupplyAir,                       !- Dedicated Outdoor Air System Control Strategy
  autosize,                               !- Dedicated Outdoor Air Low Setpoint Temperature for Design {C}
  autosize;                               !- Dedicated Outdoor Air High Setpoint Temperature for Design {C}

OS:ZoneHVAC:EquipmentList,
  {c970af3e-afd3-4c4c-963b-f0a06b4793a9}, !- Handle
  Zone HVAC Equipment List 1,             !- Name
  {9e4a645c-3b2f-47eb-b64b-106446fdb7bf}; !- Thermal Zone

OS:Space,
  {0c50f448-ea35-469c-8c5a-0f38cf235806}, !- Handle
  living space,                           !- Name
  ,                                       !- Space Type Name
  ,                                       !- Default Construction Set Name
  ,                                       !- Default Schedule Set Name
  -0,                                     !- Direction of Relative North {deg}
  0,                                      !- X Origin {m}
  0,                                      !- Y Origin {m}
  0,                                      !- Z Origin {m}
  ,                                       !- Building Story Name
  {9e4a645c-3b2f-47eb-b64b-106446fdb7bf}, !- Thermal Zone Name
  ,                                       !- Part of Total Floor Area
  ,                                       !- Design Specification Outdoor Air Object Name
  {a41e9818-b410-42e1-911b-d749dad56bd5}; !- Building Unit Name

OS:Surface,
  {684008de-5396-4998-bb44-152c7d2e1426}, !- Handle
  Surface 1,                              !- Name
  Floor,                                  !- Surface Type
  ,                                       !- Construction Name
  {0c50f448-ea35-469c-8c5a-0f38cf235806}, !- Space Name
  Ground,                                 !- Outside Boundary Condition
  ,                                       !- Outside Boundary Condition Object
  NoSun,                                  !- Sun Exposure
  NoWind,                                 !- Wind Exposure
  ,                                       !- View Factor to Ground
  ,                                       !- Number of Vertices
  0, 0, 0,                                !- X,Y,Z Vertex 1 {m}
  0, 6.81553519541936, 0,                 !- X,Y,Z Vertex 2 {m}
  13.6310703908387, 6.81553519541936, 0,  !- X,Y,Z Vertex 3 {m}
  13.6310703908387, 0, 0;                 !- X,Y,Z Vertex 4 {m}

OS:Surface,
  {af0d4638-eafb-42a6-a469-bd8f7c463938}, !- Handle
  Surface 2,                              !- Name
  Wall,                                   !- Surface Type
  {781d92e6-42c8-421b-aa1a-149a3b9c04e4}, !- Construction Name
  {0c50f448-ea35-469c-8c5a-0f38cf235806}, !- Space Name
  Outdoors,                               !- Outside Boundary Condition
  ,                                       !- Outside Boundary Condition Object
  SunExposed,                             !- Sun Exposure
  WindExposed,                            !- Wind Exposure
  ,                                       !- View Factor to Ground
  ,                                       !- Number of Vertices
  0, 6.81553519541936, 2.4384,            !- X,Y,Z Vertex 1 {m}
  0, 6.81553519541936, 0,                 !- X,Y,Z Vertex 2 {m}
  0, 0, 0,                                !- X,Y,Z Vertex 3 {m}
  0, 0, 2.4384;                           !- X,Y,Z Vertex 4 {m}

OS:Surface,
  {77b6a91e-247a-4436-ba3a-5ef617289cc8}, !- Handle
  Surface 3,                              !- Name
  Wall,                                   !- Surface Type
  {781d92e6-42c8-421b-aa1a-149a3b9c04e4}, !- Construction Name
  {0c50f448-ea35-469c-8c5a-0f38cf235806}, !- Space Name
  Outdoors,                               !- Outside Boundary Condition
  ,                                       !- Outside Boundary Condition Object
  SunExposed,                             !- Sun Exposure
  WindExposed,                            !- Wind Exposure
  ,                                       !- View Factor to Ground
  ,                                       !- Number of Vertices
  13.6310703908387, 6.81553519541936, 2.4384, !- X,Y,Z Vertex 1 {m}
  13.6310703908387, 6.81553519541936, 0,  !- X,Y,Z Vertex 2 {m}
  0, 6.81553519541936, 0,                 !- X,Y,Z Vertex 3 {m}
  0, 6.81553519541936, 2.4384;            !- X,Y,Z Vertex 4 {m}

OS:Surface,
  {8cdd0d3e-3165-4990-8a12-0f3467e35a6e}, !- Handle
  Surface 4,                              !- Name
  Wall,                                   !- Surface Type
  {781d92e6-42c8-421b-aa1a-149a3b9c04e4}, !- Construction Name
  {0c50f448-ea35-469c-8c5a-0f38cf235806}, !- Space Name
  Outdoors,                               !- Outside Boundary Condition
  ,                                       !- Outside Boundary Condition Object
  SunExposed,                             !- Sun Exposure
  WindExposed,                            !- Wind Exposure
  ,                                       !- View Factor to Ground
  ,                                       !- Number of Vertices
  13.6310703908387, 0, 2.4384,            !- X,Y,Z Vertex 1 {m}
  13.6310703908387, 0, 0,                 !- X,Y,Z Vertex 2 {m}
  13.6310703908387, 6.81553519541936, 0,  !- X,Y,Z Vertex 3 {m}
  13.6310703908387, 6.81553519541936, 2.4384; !- X,Y,Z Vertex 4 {m}

OS:Surface,
  {05e89268-dd06-4cd9-8b35-7efa1a7559e5}, !- Handle
  Surface 5,                              !- Name
  Wall,                                   !- Surface Type
  {781d92e6-42c8-421b-aa1a-149a3b9c04e4}, !- Construction Name
  {0c50f448-ea35-469c-8c5a-0f38cf235806}, !- Space Name
  Outdoors,                               !- Outside Boundary Condition
  ,                                       !- Outside Boundary Condition Object
  SunExposed,                             !- Sun Exposure
  WindExposed,                            !- Wind Exposure
  ,                                       !- View Factor to Ground
  ,                                       !- Number of Vertices
  0, 0, 2.4384,                           !- X,Y,Z Vertex 1 {m}
  0, 0, 0,                                !- X,Y,Z Vertex 2 {m}
  13.6310703908387, 0, 0,                 !- X,Y,Z Vertex 3 {m}
  13.6310703908387, 0, 2.4384;            !- X,Y,Z Vertex 4 {m}

OS:Surface,
  {aa0edec4-a1e6-4cc1-b251-0b8a71180817}, !- Handle
  Surface 6,                              !- Name
  RoofCeiling,                            !- Surface Type
  {47383349-bda3-43f5-8224-f9930bd5af4e}, !- Construction Name
  {0c50f448-ea35-469c-8c5a-0f38cf235806}, !- Space Name
  Surface,                                !- Outside Boundary Condition
  {45c6a041-6c5a-4d6c-b3f9-213da42de470}, !- Outside Boundary Condition Object
  NoSun,                                  !- Sun Exposure
  NoWind,                                 !- Wind Exposure
  ,                                       !- View Factor to Ground
  ,                                       !- Number of Vertices
  13.6310703908387, 0, 2.4384,            !- X,Y,Z Vertex 1 {m}
  13.6310703908387, 6.81553519541936, 2.4384, !- X,Y,Z Vertex 2 {m}
  0, 6.81553519541936, 2.4384,            !- X,Y,Z Vertex 3 {m}
  0, 0, 2.4384;                           !- X,Y,Z Vertex 4 {m}

OS:Space,
  {4816a3fd-9e41-4839-8236-91e5013216bb}, !- Handle
  living space|story 2,                   !- Name
  ,                                       !- Space Type Name
  ,                                       !- Default Construction Set Name
  ,                                       !- Default Schedule Set Name
  -0,                                     !- Direction of Relative North {deg}
  0,                                      !- X Origin {m}
  0,                                      !- Y Origin {m}
  2.4384,                                 !- Z Origin {m}
  ,                                       !- Building Story Name
  {9e4a645c-3b2f-47eb-b64b-106446fdb7bf}, !- Thermal Zone Name
  ,                                       !- Part of Total Floor Area
  ,                                       !- Design Specification Outdoor Air Object Name
  {a41e9818-b410-42e1-911b-d749dad56bd5}; !- Building Unit Name

OS:Surface,
  {45c6a041-6c5a-4d6c-b3f9-213da42de470}, !- Handle
  Surface 7,                              !- Name
  Floor,                                  !- Surface Type
  {47383349-bda3-43f5-8224-f9930bd5af4e}, !- Construction Name
  {4816a3fd-9e41-4839-8236-91e5013216bb}, !- Space Name
  Surface,                                !- Outside Boundary Condition
  {aa0edec4-a1e6-4cc1-b251-0b8a71180817}, !- Outside Boundary Condition Object
  NoSun,                                  !- Sun Exposure
  NoWind,                                 !- Wind Exposure
  ,                                       !- View Factor to Ground
  ,                                       !- Number of Vertices
  0, 0, 0,                                !- X,Y,Z Vertex 1 {m}
  0, 6.81553519541936, 0,                 !- X,Y,Z Vertex 2 {m}
  13.6310703908387, 6.81553519541936, 0,  !- X,Y,Z Vertex 3 {m}
  13.6310703908387, 0, 0;                 !- X,Y,Z Vertex 4 {m}

OS:Surface,
  {91c5b825-6e11-4330-896e-4cb307e86779}, !- Handle
  Surface 8,                              !- Name
  Wall,                                   !- Surface Type
  {781d92e6-42c8-421b-aa1a-149a3b9c04e4}, !- Construction Name
  {4816a3fd-9e41-4839-8236-91e5013216bb}, !- Space Name
  Outdoors,                               !- Outside Boundary Condition
  ,                                       !- Outside Boundary Condition Object
  SunExposed,                             !- Sun Exposure
  WindExposed,                            !- Wind Exposure
  ,                                       !- View Factor to Ground
  ,                                       !- Number of Vertices
  0, 6.81553519541936, 2.4384,            !- X,Y,Z Vertex 1 {m}
  0, 6.81553519541936, 0,                 !- X,Y,Z Vertex 2 {m}
  0, 0, 0,                                !- X,Y,Z Vertex 3 {m}
  0, 0, 2.4384;                           !- X,Y,Z Vertex 4 {m}

OS:Surface,
  {084bc948-aae9-4afe-b1ca-d8e059e28727}, !- Handle
  Surface 9,                              !- Name
  Wall,                                   !- Surface Type
  {781d92e6-42c8-421b-aa1a-149a3b9c04e4}, !- Construction Name
  {4816a3fd-9e41-4839-8236-91e5013216bb}, !- Space Name
  Outdoors,                               !- Outside Boundary Condition
  ,                                       !- Outside Boundary Condition Object
  SunExposed,                             !- Sun Exposure
  WindExposed,                            !- Wind Exposure
  ,                                       !- View Factor to Ground
  ,                                       !- Number of Vertices
  13.6310703908387, 6.81553519541936, 2.4384, !- X,Y,Z Vertex 1 {m}
  13.6310703908387, 6.81553519541936, 0,  !- X,Y,Z Vertex 2 {m}
  0, 6.81553519541936, 0,                 !- X,Y,Z Vertex 3 {m}
  0, 6.81553519541936, 2.4384;            !- X,Y,Z Vertex 4 {m}

OS:Surface,
  {0ca242d6-4801-4a01-b963-1e542c993a5f}, !- Handle
  Surface 10,                             !- Name
  Wall,                                   !- Surface Type
  {781d92e6-42c8-421b-aa1a-149a3b9c04e4}, !- Construction Name
  {4816a3fd-9e41-4839-8236-91e5013216bb}, !- Space Name
  Outdoors,                               !- Outside Boundary Condition
  ,                                       !- Outside Boundary Condition Object
  SunExposed,                             !- Sun Exposure
  WindExposed,                            !- Wind Exposure
  ,                                       !- View Factor to Ground
  ,                                       !- Number of Vertices
  13.6310703908387, 0, 2.4384,            !- X,Y,Z Vertex 1 {m}
  13.6310703908387, 0, 0,                 !- X,Y,Z Vertex 2 {m}
  13.6310703908387, 6.81553519541936, 0,  !- X,Y,Z Vertex 3 {m}
  13.6310703908387, 6.81553519541936, 2.4384; !- X,Y,Z Vertex 4 {m}

OS:Surface,
  {6a150735-2147-478f-aa8d-4b8079d7cd67}, !- Handle
  Surface 11,                             !- Name
  Wall,                                   !- Surface Type
  {781d92e6-42c8-421b-aa1a-149a3b9c04e4}, !- Construction Name
  {4816a3fd-9e41-4839-8236-91e5013216bb}, !- Space Name
  Outdoors,                               !- Outside Boundary Condition
  ,                                       !- Outside Boundary Condition Object
  SunExposed,                             !- Sun Exposure
  WindExposed,                            !- Wind Exposure
  ,                                       !- View Factor to Ground
  ,                                       !- Number of Vertices
  0, 0, 2.4384,                           !- X,Y,Z Vertex 1 {m}
  0, 0, 0,                                !- X,Y,Z Vertex 2 {m}
  13.6310703908387, 0, 0,                 !- X,Y,Z Vertex 3 {m}
  13.6310703908387, 0, 2.4384;            !- X,Y,Z Vertex 4 {m}

OS:Surface,
  {92fc8312-70ac-4dc4-9c20-14c31ac5a00d}, !- Handle
  Surface 12,                             !- Name
  RoofCeiling,                            !- Surface Type
  {bb08611b-dc78-4c11-ae8e-06b4c4974370}, !- Construction Name
  {4816a3fd-9e41-4839-8236-91e5013216bb}, !- Space Name
  Surface,                                !- Outside Boundary Condition
  {8ecfb3f3-2e0f-4590-9a66-bd281527222c}, !- Outside Boundary Condition Object
  NoSun,                                  !- Sun Exposure
  NoWind,                                 !- Wind Exposure
  ,                                       !- View Factor to Ground
  ,                                       !- Number of Vertices
  13.6310703908387, 0, 2.4384,            !- X,Y,Z Vertex 1 {m}
  13.6310703908387, 6.81553519541936, 2.4384, !- X,Y,Z Vertex 2 {m}
  0, 6.81553519541936, 2.4384,            !- X,Y,Z Vertex 3 {m}
  0, 0, 2.4384;                           !- X,Y,Z Vertex 4 {m}

OS:Surface,
  {8ecfb3f3-2e0f-4590-9a66-bd281527222c}, !- Handle
  Surface 13,                             !- Name
  Floor,                                  !- Surface Type
  {b1442d4d-f976-458a-8dbc-7dc0384d4155}, !- Construction Name
  {f050af94-689c-41af-9c2c-722889a70b87}, !- Space Name
  Surface,                                !- Outside Boundary Condition
  {92fc8312-70ac-4dc4-9c20-14c31ac5a00d}, !- Outside Boundary Condition Object
  NoSun,                                  !- Sun Exposure
  NoWind,                                 !- Wind Exposure
  ,                                       !- View Factor to Ground
  ,                                       !- Number of Vertices
  0, 6.81553519541936, 0,                 !- X,Y,Z Vertex 1 {m}
  13.6310703908387, 6.81553519541936, 0,  !- X,Y,Z Vertex 2 {m}
  13.6310703908387, 0, 0,                 !- X,Y,Z Vertex 3 {m}
  0, 0, 0;                                !- X,Y,Z Vertex 4 {m}

OS:Surface,
  {5ebd6c48-49bf-48c4-812f-4df9bce24c0e}, !- Handle
  Surface 14,                             !- Name
  RoofCeiling,                            !- Surface Type
  {3f278b40-8a34-4406-90da-fdc0f4efb581}, !- Construction Name
  {f050af94-689c-41af-9c2c-722889a70b87}, !- Space Name
  Outdoors,                               !- Outside Boundary Condition
  ,                                       !- Outside Boundary Condition Object
  SunExposed,                             !- Sun Exposure
  WindExposed,                            !- Wind Exposure
  ,                                       !- View Factor to Ground
  ,                                       !- Number of Vertices
  13.6310703908387, 3.40776759770968, 1.70388379885484, !- X,Y,Z Vertex 1 {m}
  0, 3.40776759770968, 1.70388379885484,  !- X,Y,Z Vertex 2 {m}
  0, 0, 0,                                !- X,Y,Z Vertex 3 {m}
  13.6310703908387, 0, 0;                 !- X,Y,Z Vertex 4 {m}

OS:Surface,
  {80c9dbbf-34a4-472e-93e6-22230e3b2536}, !- Handle
  Surface 15,                             !- Name
  RoofCeiling,                            !- Surface Type
  {3f278b40-8a34-4406-90da-fdc0f4efb581}, !- Construction Name
  {f050af94-689c-41af-9c2c-722889a70b87}, !- Space Name
  Outdoors,                               !- Outside Boundary Condition
  ,                                       !- Outside Boundary Condition Object
  SunExposed,                             !- Sun Exposure
  WindExposed,                            !- Wind Exposure
  ,                                       !- View Factor to Ground
  ,                                       !- Number of Vertices
  0, 3.40776759770968, 1.70388379885484,  !- X,Y,Z Vertex 1 {m}
  13.6310703908387, 3.40776759770968, 1.70388379885484, !- X,Y,Z Vertex 2 {m}
  13.6310703908387, 6.81553519541936, 0,  !- X,Y,Z Vertex 3 {m}
  0, 6.81553519541936, 0;                 !- X,Y,Z Vertex 4 {m}

OS:Surface,
  {5531d9f9-d25b-4c5b-9d06-f7cddfe01130}, !- Handle
  Surface 16,                             !- Name
  Wall,                                   !- Surface Type
  {6423e71c-ee0a-45b5-a42e-31c31b0543ec}, !- Construction Name
  {f050af94-689c-41af-9c2c-722889a70b87}, !- Space Name
  Outdoors,                               !- Outside Boundary Condition
  ,                                       !- Outside Boundary Condition Object
  SunExposed,                             !- Sun Exposure
  WindExposed,                            !- Wind Exposure
  ,                                       !- View Factor to Ground
  ,                                       !- Number of Vertices
  0, 3.40776759770968, 1.70388379885484,  !- X,Y,Z Vertex 1 {m}
  0, 6.81553519541936, 0,                 !- X,Y,Z Vertex 2 {m}
  0, 0, 0;                                !- X,Y,Z Vertex 3 {m}

OS:Surface,
  {076218ab-4ab5-412a-b376-ead4dba925c0}, !- Handle
  Surface 17,                             !- Name
  Wall,                                   !- Surface Type
  {6423e71c-ee0a-45b5-a42e-31c31b0543ec}, !- Construction Name
  {f050af94-689c-41af-9c2c-722889a70b87}, !- Space Name
  Outdoors,                               !- Outside Boundary Condition
  ,                                       !- Outside Boundary Condition Object
  SunExposed,                             !- Sun Exposure
  WindExposed,                            !- Wind Exposure
  ,                                       !- View Factor to Ground
  ,                                       !- Number of Vertices
  13.6310703908387, 3.40776759770968, 1.70388379885484, !- X,Y,Z Vertex 1 {m}
  13.6310703908387, 0, 0,                 !- X,Y,Z Vertex 2 {m}
  13.6310703908387, 6.81553519541936, 0;  !- X,Y,Z Vertex 3 {m}

OS:Space,
  {f050af94-689c-41af-9c2c-722889a70b87}, !- Handle
  unfinished attic space,                 !- Name
  ,                                       !- Space Type Name
  ,                                       !- Default Construction Set Name
  ,                                       !- Default Schedule Set Name
  -0,                                     !- Direction of Relative North {deg}
  0,                                      !- X Origin {m}
  0,                                      !- Y Origin {m}
  4.8768,                                 !- Z Origin {m}
  ,                                       !- Building Story Name
  {151076ec-3f02-470c-b9ae-a25882dcb316}, !- Thermal Zone Name
  ,                                       !- Part of Total Floor Area
  ,                                       !- Design Specification Outdoor Air Object Name
  {a41e9818-b410-42e1-911b-d749dad56bd5}; !- Building Unit Name

OS:ThermalZone,
  {151076ec-3f02-470c-b9ae-a25882dcb316}, !- Handle
  unfinished attic zone,                  !- Name
  ,                                       !- Multiplier
  ,                                       !- Ceiling Height {m}
  ,                                       !- Volume {m3}
  ,                                       !- Floor Area {m2}
  ,                                       !- Zone Inside Convection Algorithm
  ,                                       !- Zone Outside Convection Algorithm
  ,                                       !- Zone Conditioning Equipment List Name
  {b37e9217-9718-4c02-bccb-c96f7490beb3}, !- Zone Air Inlet Port List
  {38eac42c-efe8-4d26-86a2-ad471af5e3ac}, !- Zone Air Exhaust Port List
  {42e5524f-9a8b-4576-b599-5e610da0e35b}, !- Zone Air Node Name
  ,                                       !- Zone Return Air Node Name
  ,                                       !- Primary Daylighting Control Name
  ,                                       !- Fraction of Zone Controlled by Primary Daylighting Control
  ,                                       !- Secondary Daylighting Control Name
  ,                                       !- Fraction of Zone Controlled by Secondary Daylighting Control
  ,                                       !- Illuminance Map Name
  ,                                       !- Group Rendering Name
  ,                                       !- Thermostat Name
  No;                                     !- Use Ideal Air Loads

OS:Node,
  {533fd9b2-93ca-49fe-9a7f-d95c1d923a8d}, !- Handle
  Node 2,                                 !- Name
  {42e5524f-9a8b-4576-b599-5e610da0e35b}, !- Inlet Port
  ;                                       !- Outlet Port

OS:Connection,
  {42e5524f-9a8b-4576-b599-5e610da0e35b}, !- Handle
  {079e2581-39eb-421f-9ea5-b0e02e976125}, !- Name
  {151076ec-3f02-470c-b9ae-a25882dcb316}, !- Source Object
  11,                                     !- Outlet Port
  {533fd9b2-93ca-49fe-9a7f-d95c1d923a8d}, !- Target Object
  2;                                      !- Inlet Port

OS:PortList,
  {b37e9217-9718-4c02-bccb-c96f7490beb3}, !- Handle