!- NOTE: Auto-generated from /test/osw_files/SFD_2000sqft_2story_SL_UA_AllLayersButWallSheathing_CeilingIns.osw

OS:Version,
  {e3363f76-fae9-409f-b27d-44dfcaebf849}, !- Handle
  2.3.1;                                  !- Version Identifier

OS:Building,
  {bf305633-c5a1-4881-9edf-ca5e1a8e1274}, !- Handle
  Building,                               !- Name
  ,                                       !- Building Sector Type
  ,                                       !- North Axis {deg}
  ,                                       !- Nominal Floor to Floor Height {m}
  ,                                       !- Space Type Name
  ,                                       !- Default Construction Set Name
  ,                                       !- Default Schedule Set Name
  2,                                      !- Standards Number of Stories
  2,                                      !- Standards Number of Above Ground Stories
  singlefamilydetached,                   !- Standards Building Type
  1;                                      !- Standards Number of Living Units

OS:YearDescription,
  {513d8dda-86cb-442a-b01c-1f7f0e0ac70e}; !- Handle

OS:SimulationControl,
  {2c487a4c-bac9-4ac5-b669-1e49d9da7c2b}, !- Handle
  ,                                       !- Do Zone Sizing Calculation
  ,                                       !- Do System Sizing Calculation
  ,                                       !- Do Plant Sizing Calculation
  No,                                     !- Run Simulation for Sizing Periods
  ;                                       !- Run Simulation for Weather File Run Periods

OS:Timestep,
  {4ebc9f1e-4707-402e-9844-67eb1ffbd522}, !- Handle
  6;                                      !- Number of Timesteps per Hour

OS:RunPeriod,
  {28df894d-6af9-4fb8-8f56-df1753344aa3}, !- Handle
  Run Period,                             !- Name
  1,                                      !- Begin Month
  1,                                      !- Begin Day of Month
  12,                                     !- End Month
  31,                                     !- End Day of Month
  ,                                       !- Use Weather File Holidays and Special Days
  ,                                       !- Use Weather File Daylight Saving Period
  ,                                       !- Apply Weekend Holiday Rule
  ,                                       !- Use Weather File Rain Indicators
  ,                                       !- Use Weather File Snow Indicators
  ;                                       !- Number of Times Runperiod to be Repeated

OS:Sizing:Parameters,
  {dde5af6f-7923-4600-a28a-7556673a0266}, !- Handle
  1.0,                                    !- Heating Sizing Factor
  1.0;                                    !- Cooling Sizing Factor

OS:ShadowCalculation,
  {ca758bea-4416-4626-9bba-3d8795c79bd6}, !- Handle
  20,                                     !- Calculation Frequency
  200;                                    !- Maximum Figures in Shadow Overlap Calculations

OS:SurfaceConvectionAlgorithm:Inside,
  {aaabfc36-718a-4ab0-b622-f186ebb45230}, !- Handle
  TARP;                                   !- Algorithm

OS:SurfaceConvectionAlgorithm:Outside,
  {9a0a9f6f-4bbd-4b12-a121-9492a1fcd7d6}, !- Handle
  DOE-2;                                  !- Algorithm

OS:HeatBalanceAlgorithm,
  {9d93e563-e1e0-46d7-9e39-d1c8aceb7212}, !- Handle
  ConductionTransferFunction,             !- Algorithm
  200;                                    !- Surface Temperature Upper Limit {C}

OS:ZoneCapacitanceMultiplier:ResearchSpecial,
  {6bfced16-b16f-47f6-8223-f7e267d75d19}, !- Handle
  ,                                       !- Temperature Capacity Multiplier
  15,                                     !- Humidity Capacity Multiplier
  ;                                       !- Carbon Dioxide Capacity Multiplier

OS:ThermalZone,
  {bec402f6-56f1-4d6f-8b84-70acca5b3bc3}, !- Handle
  living zone,                            !- Name
  ,                                       !- Multiplier
  ,                                       !- Ceiling Height {m}
  ,                                       !- Volume {m3}
  ,                                       !- Floor Area {m2}
  ,                                       !- Zone Inside Convection Algorithm
  ,                                       !- Zone Outside Convection Algorithm
  ,                                       !- Zone Conditioning Equipment List Name
  {fabe8374-eebf-4b6c-87fc-a94747546593}, !- Zone Air Inlet Port List
  {4c3910c2-3ce4-40e2-b325-ed280b1fdbae}, !- Zone Air Exhaust Port List
  {60293885-f928-4cd7-aeb0-889c481678a9}, !- Zone Air Node Name
  ,                                       !- Zone Return Air Node Name
  ,                                       !- Primary Daylighting Control Name
  ,                                       !- Fraction of Zone Controlled by Primary Daylighting Control
  ,                                       !- Secondary Daylighting Control Name
  ,                                       !- Fraction of Zone Controlled by Secondary Daylighting Control
  ,                                       !- Illuminance Map Name
  ,                                       !- Group Rendering Name
  ,                                       !- Thermostat Name
  No;                                     !- Use Ideal Air Loads

OS:Node,
  {60a0c992-d792-4adc-8cc8-087bde1189ba}, !- Handle
  Node 1,                                 !- Name
  {60293885-f928-4cd7-aeb0-889c481678a9}, !- Inlet Port
  ;                                       !- Outlet Port

OS:Connection,
  {60293885-f928-4cd7-aeb0-889c481678a9}, !- Handle
  {d3d11738-d383-4ced-bf16-b12b1c814e8e}, !- Name
  {bec402f6-56f1-4d6f-8b84-70acca5b3bc3}, !- Source Object
  11,                                     !- Outlet Port
  {60a0c992-d792-4adc-8cc8-087bde1189ba}, !- Target Object
  2;                                      !- Inlet Port

OS:PortList,
  {fabe8374-eebf-4b6c-87fc-a94747546593}, !- Handle
  {3d125fa8-54b6-42f4-80d6-d032a10a3fe9}, !- Name
  {bec402f6-56f1-4d6f-8b84-70acca5b3bc3}; !- HVAC Component

OS:PortList,
  {4c3910c2-3ce4-40e2-b325-ed280b1fdbae}, !- Handle
  {db95808b-5011-4f13-bc70-5424e67eabf5}, !- Name
  {bec402f6-56f1-4d6f-8b84-70acca5b3bc3}; !- HVAC Component

OS:Sizing:Zone,
  {3b709384-792d-4c69-b928-d1f9ac23124d}, !- Handle
  {bec402f6-56f1-4d6f-8b84-70acca5b3bc3}, !- Zone or ZoneList Name
  SupplyAirTemperature,                   !- Zone Cooling Design Supply Air Temperature Input Method
  14,                                     !- Zone Cooling Design Supply Air Temperature {C}
  11.11,                                  !- Zone Cooling Design Supply Air Temperature Difference {deltaC}
  SupplyAirTemperature,                   !- Zone Heating Design Supply Air Temperature Input Method
  40,                                     !- Zone Heating Design Supply Air Temperature {C}
  11.11,                                  !- Zone Heating Design Supply Air Temperature Difference {deltaC}
  0.0085,                                 !- Zone Cooling Design Supply Air Humidity Ratio {kg-H2O/kg-air}
  0.008,                                  !- Zone Heating Design Supply Air Humidity Ratio {kg-H2O/kg-air}
  ,                                       !- Zone Heating Sizing Factor
  ,                                       !- Zone Cooling Sizing Factor
  DesignDay,                              !- Cooling Design Air Flow Method
  ,                                       !- Cooling Design Air Flow Rate {m3/s}
  ,                                       !- Cooling Minimum Air Flow per Zone Floor Area {m3/s-m2}
  ,                                       !- Cooling Minimum Air Flow {m3/s}
  ,                                       !- Cooling Minimum Air Flow Fraction
  DesignDay,                              !- Heating Design Air Flow Method
  ,                                       !- Heating Design Air Flow Rate {m3/s}
  ,                                       !- Heating Maximum Air Flow per Zone Floor Area {m3/s-m2}
  ,                                       !- Heating Maximum Air Flow {m3/s}
  ,                                       !- Heating Maximum Air Flow Fraction
  ,                                       !- Design Zone Air Distribution Effectiveness in Cooling Mode
  ,                                       !- Design Zone Air Distribution Effectiveness in Heating Mode
  No,                                     !- Account for Dedicated Outdoor Air System
  NeutralSupplyAir,                       !- Dedicated Outdoor Air System Control Strategy
  autosize,                               !- Dedicated Outdoor Air Low Setpoint Temperature for Design {C}
  autosize;                               !- Dedicated Outdoor Air High Setpoint Temperature for Design {C}

OS:ZoneHVAC:EquipmentList,
  {bdccff32-ff47-4526-b522-5af78f993b2b}, !- Handle
  Zone HVAC Equipment List 1,             !- Name
  {bec402f6-56f1-4d6f-8b84-70acca5b3bc3}; !- Thermal Zone

OS:Space,
  {0ced16c5-1628-4875-843c-ed26b110589e}, !- Handle
  living space,                           !- Name
  ,                                       !- Space Type Name
  ,                                       !- Default Construction Set Name
  ,                                       !- Default Schedule Set Name
  -0,                                     !- Direction of Relative North {deg}
  0,                                      !- X Origin {m}
  0,                                      !- Y Origin {m}
  0,                                      !- Z Origin {m}
  ,                                       !- Building Story Name
  {bec402f6-56f1-4d6f-8b84-70acca5b3bc3}, !- Thermal Zone Name
  ,                                       !- Part of Total Floor Area
  ,                                       !- Design Specification Outdoor Air Object Name
  {249d548b-9bde-41c0-aaeb-a6bac6947ae8}; !- Building Unit Name

OS:Surface,
  {87770bc0-0993-4c47-85d2-32b70af79ca7}, !- Handle
  Surface 1,                              !- Name
  Floor,                                  !- Surface Type
  ,                                       !- Construction Name
  {0ced16c5-1628-4875-843c-ed26b110589e}, !- Space Name
  Ground,                                 !- Outside Boundary Condition
  ,                                       !- Outside Boundary Condition Object
  NoSun,                                  !- Sun Exposure
  NoWind,                                 !- Wind Exposure
  ,                                       !- View Factor to Ground
  ,                                       !- Number of Vertices
  0, 0, 0,                                !- X,Y,Z Vertex 1 {m}
  0, 6.81553519541936, 0,                 !- X,Y,Z Vertex 2 {m}
  13.6310703908387, 6.81553519541936, 0,  !- X,Y,Z Vertex 3 {m}
  13.6310703908387, 0, 0;                 !- X,Y,Z Vertex 4 {m}

OS:Surface,
  {abd9b1d2-e14c-4737-bcfc-245b9ee2c0b4}, !- Handle
  Surface 2,                              !- Name
  Wall,                                   !- Surface Type
  {d75f24da-3e19-4e22-9b3c-fffd7df51066}, !- Construction Name
  {0ced16c5-1628-4875-843c-ed26b110589e}, !- Space Name
  Outdoors,                               !- Outside Boundary Condition
  ,                                       !- Outside Boundary Condition Object
  SunExposed,                             !- Sun Exposure
  WindExposed,                            !- Wind Exposure
  ,                                       !- View Factor to Ground
  ,                                       !- Number of Vertices
  0, 6.81553519541936, 2.4384,            !- X,Y,Z Vertex 1 {m}
  0, 6.81553519541936, 0,                 !- X,Y,Z Vertex 2 {m}
  0, 0, 0,                                !- X,Y,Z Vertex 3 {m}
  0, 0, 2.4384;                           !- X,Y,Z Vertex 4 {m}

OS:Surface,
  {a07a850f-5f59-484b-ade0-49a5c7a0263e}, !- Handle
  Surface 3,                              !- Name
  Wall,                                   !- Surface Type
  {d75f24da-3e19-4e22-9b3c-fffd7df51066}, !- Construction Name
  {0ced16c5-1628-4875-843c-ed26b110589e}, !- Space Name
  Outdoors,                               !- Outside Boundary Condition
  ,                                       !- Outside Boundary Condition Object
  SunExposed,                             !- Sun Exposure
  WindExposed,                            !- Wind Exposure
  ,                                       !- View Factor to Ground
  ,                                       !- Number of Vertices
  13.6310703908387, 6.81553519541936, 2.4384, !- X,Y,Z Vertex 1 {m}
  13.6310703908387, 6.81553519541936, 0,  !- X,Y,Z Vertex 2 {m}
  0, 6.81553519541936, 0,                 !- X,Y,Z Vertex 3 {m}
  0, 6.81553519541936, 2.4384;            !- X,Y,Z Vertex 4 {m}

OS:Surface,
  {6b5196e6-613a-40c5-8c8e-fb6256610302}, !- Handle
  Surface 4,                              !- Name
  Wall,                                   !- Surface Type
  {d75f24da-3e19-4e22-9b3c-fffd7df51066}, !- Construction Name
  {0ced16c5-1628-4875-843c-ed26b110589e}, !- Space Name
  Outdoors,                               !- Outside Boundary Condition
  ,                                       !- Outside Boundary Condition Object
  SunExposed,                             !- Sun Exposure
  WindExposed,                            !- Wind Exposure
  ,                                       !- View Factor to Ground
  ,                                       !- Number of Vertices
  13.6310703908387, 0, 2.4384,            !- X,Y,Z Vertex 1 {m}
  13.6310703908387, 0, 0,                 !- X,Y,Z Vertex 2 {m}
  13.6310703908387, 6.81553519541936, 0,  !- X,Y,Z Vertex 3 {m}
  13.6310703908387, 6.81553519541936, 2.4384; !- X,Y,Z Vertex 4 {m}

OS:Surface,
  {a7372d26-ecc7-4792-b719-bbb1657828c4}, !- Handle
  Surface 5,                              !- Name
  Wall,                                   !- Surface Type
  {d75f24da-3e19-4e22-9b3c-fffd7df51066}, !- Construction Name
  {0ced16c5-1628-4875-843c-ed26b110589e}, !- Space Name
  Outdoors,                               !- Outside Boundary Condition
  ,                                       !- Outside Boundary Condition Object
  SunExposed,                             !- Sun Exposure
  WindExposed,                            !- Wind Exposure
  ,                                       !- View Factor to Ground
  ,                                       !- Number of Vertices
  0, 0, 2.4384,                           !- X,Y,Z Vertex 1 {m}
  0, 0, 0,                                !- X,Y,Z Vertex 2 {m}
  13.6310703908387, 0, 0,                 !- X,Y,Z Vertex 3 {m}
  13.6310703908387, 0, 2.4384;            !- X,Y,Z Vertex 4 {m}

OS:Surface,
  {6d355c83-e4c6-4a22-af1c-21069885f085}, !- Handle
  Surface 6,                              !- Name
  RoofCeiling,                            !- Surface Type
  {6666edd8-8609-4b4d-a3e7-d403b4b84b91}, !- Construction Name
  {0ced16c5-1628-4875-843c-ed26b110589e}, !- Space Name
  Surface,                                !- Outside Boundary Condition
  {da3f29d4-661c-4cf3-94a8-040e5cbce92b}, !- Outside Boundary Condition Object
  NoSun,                                  !- Sun Exposure
  NoWind,                                 !- Wind Exposure
  ,                                       !- View Factor to Ground
  ,                                       !- Number of Vertices
  13.6310703908387, 0, 2.4384,            !- X,Y,Z Vertex 1 {m}
  13.6310703908387, 6.81553519541936, 2.4384, !- X,Y,Z Vertex 2 {m}
  0, 6.81553519541936, 2.4384,            !- X,Y,Z Vertex 3 {m}
  0, 0, 2.4384;                           !- X,Y,Z Vertex 4 {m}

OS:Space,
  {4abe6772-2f82-4e5b-825f-15a711337c88}, !- Handle
  living space|story 2,                   !- Name
  ,                                       !- Space Type Name
  ,                                       !- Default Construction Set Name
  ,                                       !- Default Schedule Set Name
  -0,                                     !- Direction of Relative North {deg}
  0,                                      !- X Origin {m}
  0,                                      !- Y Origin {m}
  2.4384,                                 !- Z Origin {m}
  ,                                       !- Building Story Name
  {bec402f6-56f1-4d6f-8b84-70acca5b3bc3}, !- Thermal Zone Name
  ,                                       !- Part of Total Floor Area
  ,                                       !- Design Specification Outdoor Air Object Name
  {249d548b-9bde-41c0-aaeb-a6bac6947ae8}; !- Building Unit Name

OS:Surface,
  {da3f29d4-661c-4cf3-94a8-040e5cbce92b}, !- Handle
  Surface 7,                              !- Name
  Floor,                                  !- Surface Type
  {6666edd8-8609-4b4d-a3e7-d403b4b84b91}, !- Construction Name
  {4abe6772-2f82-4e5b-825f-15a711337c88}, !- Space Name
  Surface,                                !- Outside Boundary Condition
  {6d355c83-e4c6-4a22-af1c-21069885f085}, !- Outside Boundary Condition Object
  NoSun,                                  !- Sun Exposure
  NoWind,                                 !- Wind Exposure
  ,                                       !- View Factor to Ground
  ,                                       !- Number of Vertices
  0, 0, 0,                                !- X,Y,Z Vertex 1 {m}
  0, 6.81553519541936, 0,                 !- X,Y,Z Vertex 2 {m}
  13.6310703908387, 6.81553519541936, 0,  !- X,Y,Z Vertex 3 {m}
  13.6310703908387, 0, 0;                 !- X,Y,Z Vertex 4 {m}

OS:Surface,
  {467b773a-4fa2-4c30-bd68-3ad291c2724e}, !- Handle
  Surface 8,                              !- Name
  Wall,                                   !- Surface Type
  {d75f24da-3e19-4e22-9b3c-fffd7df51066}, !- Construction Name
  {4abe6772-2f82-4e5b-825f-15a711337c88}, !- Space Name
  Outdoors,                               !- Outside Boundary Condition
  ,                                       !- Outside Boundary Condition Object
  SunExposed,                             !- Sun Exposure
  WindExposed,                            !- Wind Exposure
  ,                                       !- View Factor to Ground
  ,                                       !- Number of Vertices
  0, 6.81553519541936, 2.4384,            !- X,Y,Z Vertex 1 {m}
  0, 6.81553519541936, 0,                 !- X,Y,Z Vertex 2 {m}
  0, 0, 0,                                !- X,Y,Z Vertex 3 {m}
  0, 0, 2.4384;                           !- X,Y,Z Vertex 4 {m}

OS:Surface,
  {909f8f97-ef02-4887-a6a7-2261b154021a}, !- Handle
  Surface 9,                              !- Name
  Wall,                                   !- Surface Type
  {d75f24da-3e19-4e22-9b3c-fffd7df51066}, !- Construction Name
  {4abe6772-2f82-4e5b-825f-15a711337c88}, !- Space Name
  Outdoors,                               !- Outside Boundary Condition
  ,                                       !- Outside Boundary Condition Object
  SunExposed,                             !- Sun Exposure
  WindExposed,                            !- Wind Exposure
  ,                                       !- View Factor to Ground
  ,                                       !- Number of Vertices
  13.6310703908387, 6.81553519541936, 2.4384, !- X,Y,Z Vertex 1 {m}
  13.6310703908387, 6.81553519541936, 0,  !- X,Y,Z Vertex 2 {m}
  0, 6.81553519541936, 0,                 !- X,Y,Z Vertex 3 {m}
  0, 6.81553519541936, 2.4384;            !- X,Y,Z Vertex 4 {m}

OS:Surface,
  {7d48e568-4f6f-41c4-9fb5-27877cc1fedf}, !- Handle
  Surface 10,                             !- Name
  Wall,                                   !- Surface Type
  {d75f24da-3e19-4e22-9b3c-fffd7df51066}, !- Construction Name
  {4abe6772-2f82-4e5b-825f-15a711337c88}, !- Space Name
  Outdoors,                               !- Outside Boundary Condition
  ,                                       !- Outside Boundary Condition Object
  SunExposed,                             !- Sun Exposure
  WindExposed,                            !- Wind Exposure
  ,                                       !- View Factor to Ground
  ,                                       !- Number of Vertices
  13.6310703908387, 0, 2.4384,            !- X,Y,Z Vertex 1 {m}
  13.6310703908387, 0, 0,                 !- X,Y,Z Vertex 2 {m}
  13.6310703908387, 6.81553519541936, 0,  !- X,Y,Z Vertex 3 {m}
  13.6310703908387, 6.81553519541936, 2.4384; !- X,Y,Z Vertex 4 {m}

OS:Surface,
  {f9d2a90b-e8dd-4d78-bb1e-342b79233722}, !- Handle
  Surface 11,                             !- Name
  Wall,                                   !- Surface Type
  {d75f24da-3e19-4e22-9b3c-fffd7df51066}, !- Construction Name
  {4abe6772-2f82-4e5b-825f-15a711337c88}, !- Space Name
  Outdoors,                               !- Outside Boundary Condition
  ,                                       !- Outside Boundary Condition Object
  SunExposed,                             !- Sun Exposure
  WindExposed,                            !- Wind Exposure
  ,                                       !- View Factor to Ground
  ,                                       !- Number of Vertices
  0, 0, 2.4384,                           !- X,Y,Z Vertex 1 {m}
  0, 0, 0,                                !- X,Y,Z Vertex 2 {m}
  13.6310703908387, 0, 0,                 !- X,Y,Z Vertex 3 {m}
  13.6310703908387, 0, 2.4384;            !- X,Y,Z Vertex 4 {m}

OS:Surface,
  {45b7b8ea-b11b-4e48-b60a-99f703c6a3cd}, !- Handle
  Surface 12,                             !- Name
  RoofCeiling,                            !- Surface Type
  {2780d55f-7efa-4a52-95e4-bb3f9930c4d3}, !- Construction Name
  {4abe6772-2f82-4e5b-825f-15a711337c88}, !- Space Name
  Surface,                                !- Outside Boundary Condition
  {cc101d95-dd8b-41a2-be9e-bcefd87c8b87}, !- Outside Boundary Condition Object
  NoSun,                                  !- Sun Exposure
  NoWind,                                 !- Wind Exposure
  ,                                       !- View Factor to Ground
  ,                                       !- Number of Vertices
  13.6310703908387, 0, 2.4384,            !- X,Y,Z Vertex 1 {m}
  13.6310703908387, 6.81553519541936, 2.4384, !- X,Y,Z Vertex 2 {m}
  0, 6.81553519541936, 2.4384,            !- X,Y,Z Vertex 3 {m}
  0, 0, 2.4384;                           !- X,Y,Z Vertex 4 {m}

OS:Surface,
  {cc101d95-dd8b-41a2-be9e-bcefd87c8b87}, !- Handle
  Surface 13,                             !- Name
  Floor,                                  !- Surface Type
  {99381323-da53-453c-a193-ce761824cfd4}, !- Construction Name
  {00ae5d48-1540-4f7e-aa6c-8214d7707699}, !- Space Name
  Surface,                                !- Outside Boundary Condition
  {45b7b8ea-b11b-4e48-b60a-99f703c6a3cd}, !- Outside Boundary Condition Object
  NoSun,                                  !- Sun Exposure
  NoWind,                                 !- Wind Exposure
  ,                                       !- View Factor to Ground
  ,                                       !- Number of Vertices
  0, 6.81553519541936, 0,                 !- X,Y,Z Vertex 1 {m}
  13.6310703908387, 6.81553519541936, 0,  !- X,Y,Z Vertex 2 {m}
  13.6310703908387, 0, 0,                 !- X,Y,Z Vertex 3 {m}
  0, 0, 0;                                !- X,Y,Z Vertex 4 {m}

OS:Surface,
  {ab5611a3-f635-440e-908d-bee2c928c29d}, !- Handle
  Surface 14,                             !- Name
  RoofCeiling,                            !- Surface Type
  {1cc770f6-a071-44ee-b36e-d72cd8b74733}, !- Construction Name
  {00ae5d48-1540-4f7e-aa6c-8214d7707699}, !- Space Name
  Outdoors,                               !- Outside Boundary Condition
  ,                                       !- Outside Boundary Condition Object
  SunExposed,                             !- Sun Exposure
  WindExposed,                            !- Wind Exposure
  ,                                       !- View Factor to Ground
  ,                                       !- Number of Vertices
  13.6310703908387, 3.40776759770968, 1.70388379885484, !- X,Y,Z Vertex 1 {m}
  0, 3.40776759770968, 1.70388379885484,  !- X,Y,Z Vertex 2 {m}
  0, 0, 0,                                !- X,Y,Z Vertex 3 {m}
  13.6310703908387, 0, 0;                 !- X,Y,Z Vertex 4 {m}

OS:Surface,
  {590dbc17-680e-4fdc-90be-9462b5bfb661}, !- Handle
  Surface 15,                             !- Name
  RoofCeiling,                            !- Surface Type
  {1cc770f6-a071-44ee-b36e-d72cd8b74733}, !- Construction Name
  {00ae5d48-1540-4f7e-aa6c-8214d7707699}, !- Space Name
  Outdoors,                               !- Outside Boundary Condition
  ,                                       !- Outside Boundary Condition Object
  SunExposed,                             !- Sun Exposure
  WindExposed,                            !- Wind Exposure
  ,                                       !- View Factor to Ground
  ,                                       !- Number of Vertices
  0, 3.40776759770968, 1.70388379885484,  !- X,Y,Z Vertex 1 {m}
  13.6310703908387, 3.40776759770968, 1.70388379885484, !- X,Y,Z Vertex 2 {m}
  13.6310703908387, 6.81553519541936, 0,  !- X,Y,Z Vertex 3 {m}
  0, 6.81553519541936, 0;                 !- X,Y,Z Vertex 4 {m}

OS:Surface,
  {2c3990b4-e592-4b14-aa72-bfcf6bca23d0}, !- Handle
  Surface 16,                             !- Name
  Wall,                                   !- Surface Type
  {8d87dd17-af5b-485d-b938-394f985921b5}, !- Construction Name
  {00ae5d48-1540-4f7e-aa6c-8214d7707699}, !- Space Name
  Outdoors,                               !- Outside Boundary Condition
  ,                                       !- Outside Boundary Condition Object
  SunExposed,                             !- Sun Exposure
  WindExposed,                            !- Wind Exposure
  ,                                       !- View Factor to Ground
  ,                                       !- Number of Vertices
  0, 3.40776759770968, 1.70388379885484,  !- X,Y,Z Vertex 1 {m}
  0, 6.81553519541936, 0,                 !- X,Y,Z Vertex 2 {m}
  0, 0, 0;                                !- X,Y,Z Vertex 3 {m}

OS:Surface,
  {8a9721c1-ecab-4e84-a119-e48dff89fd95}, !- Handle
  Surface 17,                             !- Name
  Wall,                                   !- Surface Type
  {8d87dd17-af5b-485d-b938-394f985921b5}, !- Construction Name
  {00ae5d48-1540-4f7e-aa6c-8214d7707699}, !- Space Name
  Outdoors,                               !- Outside Boundary Condition
  ,                                       !- Outside Boundary Condition Object
  SunExposed,                             !- Sun Exposure
  WindExposed,                            !- Wind Exposure
  ,                                       !- View Factor to Ground
  ,                                       !- Number of Vertices
  13.6310703908387, 3.40776759770968, 1.70388379885484, !- X,Y,Z Vertex 1 {m}
  13.6310703908387, 0, 0,                 !- X,Y,Z Vertex 2 {m}
  13.6310703908387, 6.81553519541936, 0;  !- X,Y,Z Vertex 3 {m}

OS:Space,
  {00ae5d48-1540-4f7e-aa6c-8214d7707699}, !- Handle
  unfinished attic space,                 !- Name
  ,                                       !- Space Type Name
  ,                                       !- Default Construction Set Name
  ,                                       !- Default Schedule Set Name
  -0,                                     !- Direction of Relative North {deg}
  0,                                      !- X Origin {m}
  0,                                      !- Y Origin {m}
  4.8768,                                 !- Z Origin {m}
  ,                                       !- Building Story Name
  {103eb88c-fd95-4838-8c56-9bc41ad21595}, !- Thermal Zone Name
  ,                                       !- Part of Total Floor Area
  ,                                       !- Design Specification Outdoor Air Object Name
  {249d548b-9bde-41c0-aaeb-a6bac6947ae8}; !- Building Unit Name

OS:ThermalZone,
  {103eb88c-fd95-4838-8c56-9bc41ad21595}, !- Handle
  unfinished attic zone,                  !- Name
  ,                                       !- Multiplier
  ,                                       !- Ceiling Height {m}
  ,                                       !- Volume {m3}
  ,                                       !- Floor Area {m2}
  ,                                       !- Zone Inside Convection Algorithm
  ,                                       !- Zone Outside Convection Algorithm
  ,                                       !- Zone Conditioning Equipment List Name
  {57e75c0d-f805-40f2-b4d3-dc1beba49b63}, !- Zone Air Inlet Port List
  {41dbd0ea-fe60-45b0-93ec-dfcec9f82a60}, !- Zone Air Exhaust Port List
  {c0003068-cdf9-4e32-a244-9ffdb9ae0fdc}, !- Zone Air Node Name
  ,                                       !- Zone Return Air Node Name
  ,                                       !- Primary Daylighting Control Name
  ,                                       !- Fraction of Zone Controlled by Primary Daylighting Control
  ,                                       !- Secondary Daylighting Control Name
  ,                                       !- Fraction of Zone Controlled by Secondary Daylighting Control
  ,                                       !- Illuminance Map Name
  ,                                       !- Group Rendering Name
  ,                                       !- Thermostat Name
  No;                                     !- Use Ideal Air Loads

OS:Node,
  {4e5896c3-c131-4d5b-b9b4-842f4e81d0d9}, !- Handle
  Node 2,                                 !- Name
  {c0003068-cdf9-4e32-a244-9ffdb9ae0fdc}, !- Inlet Port
  ;                                       !- Outlet Port

OS:Connection,
  {c0003068-cdf9-4e32-a244-9ffdb9ae0fdc}, !- Handle
  {503f2157-e5a8-496e-8565-6e13e25e6478}, !- Name
  {103eb88c-fd95-4838-8c56-9bc41ad21595}, !- Source Object
  11,                                     !- Outlet Port
  {4e5896c3-c131-4d5b-b9b4-842f4e81d0d9}, !- Target Object
  2;                                      !- Inlet Port

OS:PortList,
  {57e75c0d-f805-40f2-b4d3-dc1beba49b63}, !- Handle