!- NOTE: Auto-generated from /test/osw_files/SFD_2000sqft_2story_SL_UA_AllLayersButWallSheathing_CeilingIns.osw

OS:Version,
  {54efa4ff-9498-4a07-b3df-ca5ec129b1b9}, !- Handle
  2.2.1;                                  !- Version Identifier

OS:Building,
  {bf305633-c5a1-4881-9edf-ca5e1a8e1274}, !- Handle
  Building,                               !- Name
  ,                                       !- Building Sector Type
  ,                                       !- North Axis {deg}
  ,                                       !- Nominal Floor to Floor Height {m}
  ,                                       !- Space Type Name
  ,                                       !- Default Construction Set Name
  ,                                       !- Default Schedule Set Name
  2,                                      !- Standards Number of Stories
  2,                                      !- Standards Number of Above Ground Stories
  singlefamilydetached,                   !- Standards Building Type
  1;                                      !- Standards Number of Living Units

OS:YearDescription,
  {513d8dda-86cb-442a-b01c-1f7f0e0ac70e}; !- Handle

OS:SimulationControl,
  {2c487a4c-bac9-4ac5-b669-1e49d9da7c2b}, !- Handle
  ,                                       !- Do Zone Sizing Calculation
  ,                                       !- Do System Sizing Calculation
  ,                                       !- Do Plant Sizing Calculation
  No,                                     !- Run Simulation for Sizing Periods
  ;                                       !- Run Simulation for Weather File Run Periods

OS:Timestep,
  {4ebc9f1e-4707-402e-9844-67eb1ffbd522}, !- Handle
  6;                                      !- Number of Timesteps per Hour

OS:RunPeriod,
  {28df894d-6af9-4fb8-8f56-df1753344aa3}, !- Handle
  Run Period,                             !- Name
  1,                                      !- Begin Month
  1,                                      !- Begin Day of Month
  12,                                     !- End Month
  31,                                     !- End Day of Month
  ,                                       !- Use Weather File Holidays and Special Days
  ,                                       !- Use Weather File Daylight Saving Period
  ,                                       !- Apply Weekend Holiday Rule
  ,                                       !- Use Weather File Rain Indicators
  ,                                       !- Use Weather File Snow Indicators
  ;                                       !- Number of Times Runperiod to be Repeated

OS:Sizing:Parameters,
  {dde5af6f-7923-4600-a28a-7556673a0266}, !- Handle
  1.0,                                    !- Heating Sizing Factor
  1.0;                                    !- Cooling Sizing Factor

OS:ShadowCalculation,
  {ca758bea-4416-4626-9bba-3d8795c79bd6}, !- Handle
  20,                                     !- Calculation Frequency
  200;                                    !- Maximum Figures in Shadow Overlap Calculations

OS:SurfaceConvectionAlgorithm:Inside,
  {aaabfc36-718a-4ab0-b622-f186ebb45230}, !- Handle
  TARP;                                   !- Algorithm

OS:SurfaceConvectionAlgorithm:Outside,
  {9a0a9f6f-4bbd-4b12-a121-9492a1fcd7d6}, !- Handle
  DOE-2;                                  !- Algorithm

OS:HeatBalanceAlgorithm,
  {9d93e563-e1e0-46d7-9e39-d1c8aceb7212}, !- Handle
  ConductionTransferFunction,             !- Algorithm
  200;                                    !- Surface Temperature Upper Limit {C}

OS:ZoneCapacitanceMultiplier:ResearchSpecial,
  {6bfced16-b16f-47f6-8223-f7e267d75d19}, !- Handle
  ,                                       !- Temperature Capacity Multiplier
  15,                                     !- Humidity Capacity Multiplier
  ;                                       !- Carbon Dioxide Capacity Multiplier

OS:ThermalZone,
  {4b3d0006-3216-4792-82b2-f0f1b0b06ea9}, !- Handle
  living zone,                            !- Name
  ,                                       !- Multiplier
  ,                                       !- Ceiling Height {m}
  ,                                       !- Volume {m3}
  ,                                       !- Floor Area {m2}
  ,                                       !- Zone Inside Convection Algorithm
  ,                                       !- Zone Outside Convection Algorithm
  ,                                       !- Zone Conditioning Equipment List Name
  {6de74baa-3b1a-4a9d-ba50-01b09cf45589}, !- Zone Air Inlet Port List
  {83d69025-9fea-4912-b1e2-a0c76254ee3f}, !- Zone Air Exhaust Port List
  {6f29f6aa-7493-4500-955f-e1128286355a}, !- Zone Air Node Name
  ,                                       !- Zone Return Air Node Name
  ,                                       !- Primary Daylighting Control Name
  ,                                       !- Fraction of Zone Controlled by Primary Daylighting Control
  ,                                       !- Secondary Daylighting Control Name
  ,                                       !- Fraction of Zone Controlled by Secondary Daylighting Control
  ,                                       !- Illuminance Map Name
  ,                                       !- Group Rendering Name
  ,                                       !- Thermostat Name
  No;                                     !- Use Ideal Air Loads

OS:Node,
  {dcac33b3-d192-452b-895a-90f3006f51db}, !- Handle
  Node 1,                                 !- Name
  {6f29f6aa-7493-4500-955f-e1128286355a}, !- Inlet Port
  ;                                       !- Outlet Port

OS:Connection,
  {6f29f6aa-7493-4500-955f-e1128286355a}, !- Handle
  {f2f1ff28-7f4b-44b5-bdca-cb3435b7d4e6}, !- Name
  {4b3d0006-3216-4792-82b2-f0f1b0b06ea9}, !- Source Object
  11,                                     !- Outlet Port
  {dcac33b3-d192-452b-895a-90f3006f51db}, !- Target Object
  2;                                      !- Inlet Port

OS:PortList,
  {6de74baa-3b1a-4a9d-ba50-01b09cf45589}, !- Handle
  {4537c79f-6058-4bce-91b2-2805e75f4cf3}, !- Name
  {4b3d0006-3216-4792-82b2-f0f1b0b06ea9}; !- HVAC Component

OS:PortList,
  {83d69025-9fea-4912-b1e2-a0c76254ee3f}, !- Handle
  {8d09061e-46d7-4b10-b3ed-f8f90df73081}, !- Name
  {4b3d0006-3216-4792-82b2-f0f1b0b06ea9}; !- HVAC Component

OS:Sizing:Zone,
  {fbbb9ad1-122a-43a0-aa5c-fbd407c59d40}, !- Handle
  {4b3d0006-3216-4792-82b2-f0f1b0b06ea9}, !- Zone or ZoneList Name
  SupplyAirTemperature,                   !- Zone Cooling Design Supply Air Temperature Input Method
  14,                                     !- Zone Cooling Design Supply Air Temperature {C}
  11.11,                                  !- Zone Cooling Design Supply Air Temperature Difference {deltaC}
  SupplyAirTemperature,                   !- Zone Heating Design Supply Air Temperature Input Method
  40,                                     !- Zone Heating Design Supply Air Temperature {C}
  11.11,                                  !- Zone Heating Design Supply Air Temperature Difference {deltaC}
  0.0085,                                 !- Zone Cooling Design Supply Air Humidity Ratio {kg-H2O/kg-air}
  0.008,                                  !- Zone Heating Design Supply Air Humidity Ratio {kg-H2O/kg-air}
  ,                                       !- Zone Heating Sizing Factor
  ,                                       !- Zone Cooling Sizing Factor
  DesignDay,                              !- Cooling Design Air Flow Method
  ,                                       !- Cooling Design Air Flow Rate {m3/s}
  ,                                       !- Cooling Minimum Air Flow per Zone Floor Area {m3/s-m2}
  ,                                       !- Cooling Minimum Air Flow {m3/s}
  ,                                       !- Cooling Minimum Air Flow Fraction
  DesignDay,                              !- Heating Design Air Flow Method
  ,                                       !- Heating Design Air Flow Rate {m3/s}
  ,                                       !- Heating Maximum Air Flow per Zone Floor Area {m3/s-m2}
  ,                                       !- Heating Maximum Air Flow {m3/s}
  ,                                       !- Heating Maximum Air Flow Fraction
  ,                                       !- Design Zone Air Distribution Effectiveness in Cooling Mode
  ,                                       !- Design Zone Air Distribution Effectiveness in Heating Mode
  No,                                     !- Account for Dedicated Outdoor Air System
  NeutralSupplyAir,                       !- Dedicated Outdoor Air System Control Strategy
  autosize,                               !- Dedicated Outdoor Air Low Setpoint Temperature for Design {C}
  autosize;                               !- Dedicated Outdoor Air High Setpoint Temperature for Design {C}

OS:ZoneHVAC:EquipmentList,
  {4c225bca-ba06-42e8-b3f2-f061dea9f6d5}, !- Handle
  Zone HVAC Equipment List 1,             !- Name
  {4b3d0006-3216-4792-82b2-f0f1b0b06ea9}; !- Thermal Zone

OS:Space,
  {05e48c32-2e43-4970-b98f-faf93ea6948a}, !- Handle
  living space,                           !- Name
  ,                                       !- Space Type Name
  ,                                       !- Default Construction Set Name
  ,                                       !- Default Schedule Set Name
  -0,                                     !- Direction of Relative North {deg}
  0,                                      !- X Origin {m}
  0,                                      !- Y Origin {m}
  0,                                      !- Z Origin {m}
  ,                                       !- Building Story Name
  {4b3d0006-3216-4792-82b2-f0f1b0b06ea9}, !- Thermal Zone Name
  ,                                       !- Part of Total Floor Area
  ,                                       !- Design Specification Outdoor Air Object Name
  {974b340d-ae14-41e6-b3fa-2133084be64b}; !- Building Unit Name

OS:Surface,
  {7332f8c5-01cb-4416-9c11-6cffd0d3b912}, !- Handle
  Surface 1,                              !- Name
  Floor,                                  !- Surface Type
  ,                                       !- Construction Name
  {05e48c32-2e43-4970-b98f-faf93ea6948a}, !- Space Name
  Ground,                                 !- Outside Boundary Condition
  ,                                       !- Outside Boundary Condition Object
  NoSun,                                  !- Sun Exposure
  NoWind,                                 !- Wind Exposure
  ,                                       !- View Factor to Ground
  ,                                       !- Number of Vertices
  0, 0, 0,                                !- X,Y,Z Vertex 1 {m}
  0, 6.81553519541936, 0,                 !- X,Y,Z Vertex 2 {m}
  13.6310703908387, 6.81553519541936, 0,  !- X,Y,Z Vertex 3 {m}
  13.6310703908387, 0, 0;                 !- X,Y,Z Vertex 4 {m}

OS:Surface,
  {a8a55b42-9534-426e-8433-a4bcfafa1127}, !- Handle
  Surface 2,                              !- Name
  Wall,                                   !- Surface Type
  {c5e73e62-34ec-4a3c-8f20-b544a0015bd2}, !- Construction Name
  {05e48c32-2e43-4970-b98f-faf93ea6948a}, !- Space Name
  Outdoors,                               !- Outside Boundary Condition
  ,                                       !- Outside Boundary Condition Object
  SunExposed,                             !- Sun Exposure
  WindExposed,                            !- Wind Exposure
  ,                                       !- View Factor to Ground
  ,                                       !- Number of Vertices
  0, 6.81553519541936, 2.4384,            !- X,Y,Z Vertex 1 {m}
  0, 6.81553519541936, 0,                 !- X,Y,Z Vertex 2 {m}
  0, 0, 0,                                !- X,Y,Z Vertex 3 {m}
  0, 0, 2.4384;                           !- X,Y,Z Vertex 4 {m}

OS:Surface,
  {d4975c22-6405-4aad-8937-ed62d6081547}, !- Handle
  Surface 3,                              !- Name
  Wall,                                   !- Surface Type
  {c5e73e62-34ec-4a3c-8f20-b544a0015bd2}, !- Construction Name
  {05e48c32-2e43-4970-b98f-faf93ea6948a}, !- Space Name
  Outdoors,                               !- Outside Boundary Condition
  ,                                       !- Outside Boundary Condition Object
  SunExposed,                             !- Sun Exposure
  WindExposed,                            !- Wind Exposure
  ,                                       !- View Factor to Ground
  ,                                       !- Number of Vertices
  13.6310703908387, 6.81553519541936, 2.4384, !- X,Y,Z Vertex 1 {m}
  13.6310703908387, 6.81553519541936, 0,  !- X,Y,Z Vertex 2 {m}
  0, 6.81553519541936, 0,                 !- X,Y,Z Vertex 3 {m}
  0, 6.81553519541936, 2.4384;            !- X,Y,Z Vertex 4 {m}

OS:Surface,
  {db93e121-8a4c-4fad-89d1-5696e759b7eb}, !- Handle
  Surface 4,                              !- Name
  Wall,                                   !- Surface Type
  {c5e73e62-34ec-4a3c-8f20-b544a0015bd2}, !- Construction Name
  {05e48c32-2e43-4970-b98f-faf93ea6948a}, !- Space Name
  Outdoors,                               !- Outside Boundary Condition
  ,                                       !- Outside Boundary Condition Object
  SunExposed,                             !- Sun Exposure
  WindExposed,                            !- Wind Exposure
  ,                                       !- View Factor to Ground
  ,                                       !- Number of Vertices
  13.6310703908387, 0, 2.4384,            !- X,Y,Z Vertex 1 {m}
  13.6310703908387, 0, 0,                 !- X,Y,Z Vertex 2 {m}
  13.6310703908387, 6.81553519541936, 0,  !- X,Y,Z Vertex 3 {m}
  13.6310703908387, 6.81553519541936, 2.4384; !- X,Y,Z Vertex 4 {m}

OS:Surface,
  {b0a6adbf-5b83-4de1-8beb-e5bb000af7d4}, !- Handle
  Surface 5,                              !- Name
  Wall,                                   !- Surface Type
  {c5e73e62-34ec-4a3c-8f20-b544a0015bd2}, !- Construction Name
  {05e48c32-2e43-4970-b98f-faf93ea6948a}, !- Space Name
  Outdoors,                               !- Outside Boundary Condition
  ,                                       !- Outside Boundary Condition Object
  SunExposed,                             !- Sun Exposure
  WindExposed,                            !- Wind Exposure
  ,                                       !- View Factor to Ground
  ,                                       !- Number of Vertices
  0, 0, 2.4384,                           !- X,Y,Z Vertex 1 {m}
  0, 0, 0,                                !- X,Y,Z Vertex 2 {m}
  13.6310703908387, 0, 0,                 !- X,Y,Z Vertex 3 {m}
  13.6310703908387, 0, 2.4384;            !- X,Y,Z Vertex 4 {m}

OS:Surface,
  {c8fc7cc0-1e78-4cec-a2b6-8dd87eda0ab3}, !- Handle
  Surface 6,                              !- Name
  RoofCeiling,                            !- Surface Type
  {6956ae3d-42c7-4a55-a753-329c18fde30e}, !- Construction Name
  {05e48c32-2e43-4970-b98f-faf93ea6948a}, !- Space Name
  Surface,                                !- Outside Boundary Condition
  {f8da5e6a-1ced-473a-8ec8-ea15f34a3059}, !- Outside Boundary Condition Object
  NoSun,                                  !- Sun Exposure
  NoWind,                                 !- Wind Exposure
  ,                                       !- View Factor to Ground
  ,                                       !- Number of Vertices
  13.6310703908387, 0, 2.4384,            !- X,Y,Z Vertex 1 {m}
  13.6310703908387, 6.81553519541936, 2.4384, !- X,Y,Z Vertex 2 {m}
  0, 6.81553519541936, 2.4384,            !- X,Y,Z Vertex 3 {m}
  0, 0, 2.4384;                           !- X,Y,Z Vertex 4 {m}

OS:Space,
  {4415d7de-b0d2-4008-be3e-f1572b3a7927}, !- Handle
  living space|story 2,                   !- Name
  ,                                       !- Space Type Name
  ,                                       !- Default Construction Set Name
  ,                                       !- Default Schedule Set Name
  -0,                                     !- Direction of Relative North {deg}
  0,                                      !- X Origin {m}
  0,                                      !- Y Origin {m}
  2.4384,                                 !- Z Origin {m}
  ,                                       !- Building Story Name
  {4b3d0006-3216-4792-82b2-f0f1b0b06ea9}, !- Thermal Zone Name
  ,                                       !- Part of Total Floor Area
  ,                                       !- Design Specification Outdoor Air Object Name
  {974b340d-ae14-41e6-b3fa-2133084be64b}; !- Building Unit Name

OS:Surface,
  {f8da5e6a-1ced-473a-8ec8-ea15f34a3059}, !- Handle
  Surface 7,                              !- Name
  Floor,                                  !- Surface Type
  {6956ae3d-42c7-4a55-a753-329c18fde30e}, !- Construction Name
  {4415d7de-b0d2-4008-be3e-f1572b3a7927}, !- Space Name
  Surface,                                !- Outside Boundary Condition
  {c8fc7cc0-1e78-4cec-a2b6-8dd87eda0ab3}, !- Outside Boundary Condition Object
  NoSun,                                  !- Sun Exposure
  NoWind,                                 !- Wind Exposure
  ,                                       !- View Factor to Ground
  ,                                       !- Number of Vertices
  0, 0, 0,                                !- X,Y,Z Vertex 1 {m}
  0, 6.81553519541936, 0,                 !- X,Y,Z Vertex 2 {m}
  13.6310703908387, 6.81553519541936, 0,  !- X,Y,Z Vertex 3 {m}
  13.6310703908387, 0, 0;                 !- X,Y,Z Vertex 4 {m}

OS:Surface,
  {ae2bcc87-d726-434a-b350-ae7b7b67d174}, !- Handle
  Surface 8,                              !- Name
  Wall,                                   !- Surface Type
  {c5e73e62-34ec-4a3c-8f20-b544a0015bd2}, !- Construction Name
  {4415d7de-b0d2-4008-be3e-f1572b3a7927}, !- Space Name
  Outdoors,                               !- Outside Boundary Condition
  ,                                       !- Outside Boundary Condition Object
  SunExposed,                             !- Sun Exposure
  WindExposed,                            !- Wind Exposure
  ,                                       !- View Factor to Ground
  ,                                       !- Number of Vertices
  0, 6.81553519541936, 2.4384,            !- X,Y,Z Vertex 1 {m}
  0, 6.81553519541936, 0,                 !- X,Y,Z Vertex 2 {m}
  0, 0, 0,                                !- X,Y,Z Vertex 3 {m}
  0, 0, 2.4384;                           !- X,Y,Z Vertex 4 {m}

OS:Surface,
  {332510c8-5690-4038-9ffa-c0cdc5ede237}, !- Handle
  Surface 9,                              !- Name
  Wall,                                   !- Surface Type
  {c5e73e62-34ec-4a3c-8f20-b544a0015bd2}, !- Construction Name
  {4415d7de-b0d2-4008-be3e-f1572b3a7927}, !- Space Name
  Outdoors,                               !- Outside Boundary Condition
  ,                                       !- Outside Boundary Condition Object
  SunExposed,                             !- Sun Exposure
  WindExposed,                            !- Wind Exposure
  ,                                       !- View Factor to Ground
  ,                                       !- Number of Vertices
  13.6310703908387, 6.81553519541936, 2.4384, !- X,Y,Z Vertex 1 {m}
  13.6310703908387, 6.81553519541936, 0,  !- X,Y,Z Vertex 2 {m}
  0, 6.81553519541936, 0,                 !- X,Y,Z Vertex 3 {m}
  0, 6.81553519541936, 2.4384;            !- X,Y,Z Vertex 4 {m}

OS:Surface,
  {1ee8352d-e984-4e75-8ac9-1e5ce12501e0}, !- Handle
  Surface 10,                             !- Name
  Wall,                                   !- Surface Type
  {c5e73e62-34ec-4a3c-8f20-b544a0015bd2}, !- Construction Name
  {4415d7de-b0d2-4008-be3e-f1572b3a7927}, !- Space Name
  Outdoors,                               !- Outside Boundary Condition
  ,                                       !- Outside Boundary Condition Object
  SunExposed,                             !- Sun Exposure
  WindExposed,                            !- Wind Exposure
  ,                                       !- View Factor to Ground
  ,                                       !- Number of Vertices
  13.6310703908387, 0, 2.4384,            !- X,Y,Z Vertex 1 {m}
  13.6310703908387, 0, 0,                 !- X,Y,Z Vertex 2 {m}
  13.6310703908387, 6.81553519541936, 0,  !- X,Y,Z Vertex 3 {m}
  13.6310703908387, 6.81553519541936, 2.4384; !- X,Y,Z Vertex 4 {m}

OS:Surface,
  {91ed70dd-fae6-46cc-bdf2-fc27911840ac}, !- Handle
  Surface 11,                             !- Name
  Wall,                                   !- Surface Type
  {c5e73e62-34ec-4a3c-8f20-b544a0015bd2}, !- Construction Name
  {4415d7de-b0d2-4008-be3e-f1572b3a7927}, !- Space Name
  Outdoors,                               !- Outside Boundary Condition
  ,                                       !- Outside Boundary Condition Object
  SunExposed,                             !- Sun Exposure
  WindExposed,                            !- Wind Exposure
  ,                                       !- View Factor to Ground
  ,                                       !- Number of Vertices
  0, 0, 2.4384,                           !- X,Y,Z Vertex 1 {m}
  0, 0, 0,                                !- X,Y,Z Vertex 2 {m}
  13.6310703908387, 0, 0,                 !- X,Y,Z Vertex 3 {m}
  13.6310703908387, 0, 2.4384;            !- X,Y,Z Vertex 4 {m}

OS:Surface,
  {ebe0b486-2d81-4241-9d57-e284ccf77bc6}, !- Handle
  Surface 12,                             !- Name
  RoofCeiling,                            !- Surface Type
  {7fe9f90f-7c07-483f-a4f9-a2271f281b89}, !- Construction Name
  {4415d7de-b0d2-4008-be3e-f1572b3a7927}, !- Space Name
  Surface,                                !- Outside Boundary Condition
  {6460b1e0-f03c-4e0c-ba52-bdf071c02cb3}, !- Outside Boundary Condition Object
  NoSun,                                  !- Sun Exposure
  NoWind,                                 !- Wind Exposure
  ,                                       !- View Factor to Ground
  ,                                       !- Number of Vertices
  13.6310703908387, 0, 2.4384,            !- X,Y,Z Vertex 1 {m}
  13.6310703908387, 6.81553519541936, 2.4384, !- X,Y,Z Vertex 2 {m}
  0, 6.81553519541936, 2.4384,            !- X,Y,Z Vertex 3 {m}
  0, 0, 2.4384;                           !- X,Y,Z Vertex 4 {m}

OS:Surface,
  {6460b1e0-f03c-4e0c-ba52-bdf071c02cb3}, !- Handle
  Surface 13,                             !- Name
  Floor,                                  !- Surface Type
  {9a961fe1-0f31-40aa-9d6d-f4b43cf91474}, !- Construction Name
  {317c65e3-d86d-40a3-80f8-07e592b71e00}, !- Space Name
  Surface,                                !- Outside Boundary Condition
  {ebe0b486-2d81-4241-9d57-e284ccf77bc6}, !- Outside Boundary Condition Object
  NoSun,                                  !- Sun Exposure
  NoWind,                                 !- Wind Exposure
  ,                                       !- View Factor to Ground
  ,                                       !- Number of Vertices
  0, 6.81553519541936, 0,                 !- X,Y,Z Vertex 1 {m}
  13.6310703908387, 6.81553519541936, 0,  !- X,Y,Z Vertex 2 {m}
  13.6310703908387, 0, 0,                 !- X,Y,Z Vertex 3 {m}
  0, 0, 0;                                !- X,Y,Z Vertex 4 {m}

OS:Surface,
  {85d7a41a-bac9-4d1c-bdde-785684cecac2}, !- Handle
  Surface 14,                             !- Name
  RoofCeiling,                            !- Surface Type
  {c180cafa-6ba5-4604-879f-6f29aa129418}, !- Construction Name
  {317c65e3-d86d-40a3-80f8-07e592b71e00}, !- Space Name
  Outdoors,                               !- Outside Boundary Condition
  ,                                       !- Outside Boundary Condition Object
  SunExposed,                             !- Sun Exposure
  WindExposed,                            !- Wind Exposure
  ,                                       !- View Factor to Ground
  ,                                       !- Number of Vertices
  13.6310703908387, 3.40776759770968, 1.70388379885484, !- X,Y,Z Vertex 1 {m}
  0, 3.40776759770968, 1.70388379885484,  !- X,Y,Z Vertex 2 {m}
  0, 0, 0,                                !- X,Y,Z Vertex 3 {m}
  13.6310703908387, 0, 0;                 !- X,Y,Z Vertex 4 {m}

OS:Surface,
  {e6e4d996-bb4a-47a0-9347-5973f9e18a59}, !- Handle
  Surface 15,                             !- Name
  RoofCeiling,                            !- Surface Type
  {c180cafa-6ba5-4604-879f-6f29aa129418}, !- Construction Name
  {317c65e3-d86d-40a3-80f8-07e592b71e00}, !- Space Name
  Outdoors,                               !- Outside Boundary Condition
  ,                                       !- Outside Boundary Condition Object
  SunExposed,                             !- Sun Exposure
  WindExposed,                            !- Wind Exposure
  ,                                       !- View Factor to Ground
  ,                                       !- Number of Vertices
  0, 3.40776759770968, 1.70388379885484,  !- X,Y,Z Vertex 1 {m}
  13.6310703908387, 3.40776759770968, 1.70388379885484, !- X,Y,Z Vertex 2 {m}
  13.6310703908387, 6.81553519541936, 0,  !- X,Y,Z Vertex 3 {m}
  0, 6.81553519541936, 0;                 !- X,Y,Z Vertex 4 {m}

OS:Surface,
  {48ae2202-ce8a-4291-b6bf-1ac77d94f277}, !- Handle
  Surface 16,                             !- Name
  Wall,                                   !- Surface Type
  {3bcdab1f-fa1e-4713-bd2d-30ebf9c363a5}, !- Construction Name
  {317c65e3-d86d-40a3-80f8-07e592b71e00}, !- Space Name
  Outdoors,                               !- Outside Boundary Condition
  ,                                       !- Outside Boundary Condition Object
  SunExposed,                             !- Sun Exposure
  WindExposed,                            !- Wind Exposure
  ,                                       !- View Factor to Ground
  ,                                       !- Number of Vertices
  0, 3.40776759770968, 1.70388379885484,  !- X,Y,Z Vertex 1 {m}
  0, 6.81553519541936, 0,                 !- X,Y,Z Vertex 2 {m}
  0, 0, 0;                                !- X,Y,Z Vertex 3 {m}

OS:Surface,
  {7bde269f-4202-4c90-9ce2-67532d82ee40}, !- Handle
  Surface 17,                             !- Name
  Wall,                                   !- Surface Type
  {3bcdab1f-fa1e-4713-bd2d-30ebf9c363a5}, !- Construction Name
  {317c65e3-d86d-40a3-80f8-07e592b71e00}, !- Space Name
  Outdoors,                               !- Outside Boundary Condition
  ,                                       !- Outside Boundary Condition Object
  SunExposed,                             !- Sun Exposure
  WindExposed,                            !- Wind Exposure
  ,                                       !- View Factor to Ground
  ,                                       !- Number of Vertices
  13.6310703908387, 3.40776759770968, 1.70388379885484, !- X,Y,Z Vertex 1 {m}
  13.6310703908387, 0, 0,                 !- X,Y,Z Vertex 2 {m}
  13.6310703908387, 6.81553519541936, 0;  !- X,Y,Z Vertex 3 {m}

OS:Space,
  {317c65e3-d86d-40a3-80f8-07e592b71e00}, !- Handle
  unfinished attic space,                 !- Name
  ,                                       !- Space Type Name
  ,                                       !- Default Construction Set Name
  ,                                       !- Default Schedule Set Name
  -0,                                     !- Direction of Relative North {deg}
  0,                                      !- X Origin {m}
  0,                                      !- Y Origin {m}
  4.8768,                                 !- Z Origin {m}
  ,                                       !- Building Story Name
  {2f367300-31de-4859-b15b-f0bc4855155d}, !- Thermal Zone Name
  ,                                       !- Part of Total Floor Area
  ,                                       !- Design Specification Outdoor Air Object Name
  {974b340d-ae14-41e6-b3fa-2133084be64b}; !- Building Unit Name

OS:ThermalZone,
  {2f367300-31de-4859-b15b-f0bc4855155d}, !- Handle
  unfinished attic zone,                  !- Name
  ,                                       !- Multiplier
  ,                                       !- Ceiling Height {m}
  ,                                       !- Volume {m3}
  ,                                       !- Floor Area {m2}
  ,                                       !- Zone Inside Convection Algorithm
  ,                                       !- Zone Outside Convection Algorithm
  ,                                       !- Zone Conditioning Equipment List Name
  {c7525896-ecbd-4ee6-9331-ba6acabf9f50}, !- Zone Air Inlet Port List
  {dceae2af-b6d4-443f-9a26-7ab127ce8438}, !- Zone Air Exhaust Port List
  {a7186518-cd62-4bea-b9cc-093849eea2a3}, !- Zone Air Node Name
  ,                                       !- Zone Return Air Node Name
  ,                                       !- Primary Daylighting Control Name
  ,                                       !- Fraction of Zone Controlled by Primary Daylighting Control
  ,                                       !- Secondary Daylighting Control Name
  ,                                       !- Fraction of Zone Controlled by Secondary Daylighting Control
  ,                                       !- Illuminance Map Name
  ,                                       !- Group Rendering Name
  ,                                       !- Thermostat Name
  No;                                     !- Use Ideal Air Loads

OS:Node,
  {2c0c6861-afb1-4e2c-b0c7-ac83b5d9e4a7}, !- Handle
  Node 2,                                 !- Name
  {a7186518-cd62-4bea-b9cc-093849eea2a3}, !- Inlet Port
  ;                                       !- Outlet Port

OS:Connection,
  {a7186518-cd62-4bea-b9cc-093849eea2a3}, !- Handle
  {1cc47653-b4c7-41a4-aa28-aa8c91787a54}, !- Name
  {2f367300-31de-4859-b15b-f0bc4855155d}, !- Source Object
  11,                                     !- Outlet Port
  {2c0c6861-afb1-4e2c-b0c7-ac83b5d9e4a7}, !- Target Object
  2;                                      !- Inlet Port

OS:PortList,
  {c7525896-ecbd-4ee6-9331-ba6acabf9f50}, !- Handle