!- NOTE: Auto-generated from /test/osw_files/SFD_2000sqft_2story_SL_UA_AllLayersButWallThermalMass_CeilingIns.osw

OS:Version,
  {9d0ff628-818d-4a33-b887-02e15f47971e}, !- Handle
  2.4.0;                                  !- Version Identifier

OS:Building,
  {bf305633-c5a1-4881-9edf-ca5e1a8e1274}, !- Handle
  Building,                               !- Name
  ,                                       !- Building Sector Type
  ,                                       !- North Axis {deg}
  ,                                       !- Nominal Floor to Floor Height {m}
  ,                                       !- Space Type Name
  ,                                       !- Default Construction Set Name
  ,                                       !- Default Schedule Set Name
  2,                                      !- Standards Number of Stories
  2,                                      !- Standards Number of Above Ground Stories
  singlefamilydetached,                   !- Standards Building Type
  1;                                      !- Standards Number of Living Units

OS:YearDescription,
  {513d8dda-86cb-442a-b01c-1f7f0e0ac70e}; !- Handle

OS:SimulationControl,
  {2c487a4c-bac9-4ac5-b669-1e49d9da7c2b}, !- Handle
  ,                                       !- Do Zone Sizing Calculation
  ,                                       !- Do System Sizing Calculation
  ,                                       !- Do Plant Sizing Calculation
  No,                                     !- Run Simulation for Sizing Periods
  ;                                       !- Run Simulation for Weather File Run Periods

OS:Timestep,
  {4ebc9f1e-4707-402e-9844-67eb1ffbd522}, !- Handle
  6;                                      !- Number of Timesteps per Hour

OS:RunPeriod,
  {28df894d-6af9-4fb8-8f56-df1753344aa3}, !- Handle
  Run Period,                             !- Name
  1,                                      !- Begin Month
  1,                                      !- Begin Day of Month
  12,                                     !- End Month
  31,                                     !- End Day of Month
  ,                                       !- Use Weather File Holidays and Special Days
  ,                                       !- Use Weather File Daylight Saving Period
  ,                                       !- Apply Weekend Holiday Rule
  ,                                       !- Use Weather File Rain Indicators
  ,                                       !- Use Weather File Snow Indicators
  ;                                       !- Number of Times Runperiod to be Repeated

OS:Sizing:Parameters,
  {dde5af6f-7923-4600-a28a-7556673a0266}, !- Handle
  1.0,                                    !- Heating Sizing Factor
  1.0;                                    !- Cooling Sizing Factor

OS:ShadowCalculation,
  {ca758bea-4416-4626-9bba-3d8795c79bd6}, !- Handle
  20,                                     !- Calculation Frequency
  200;                                    !- Maximum Figures in Shadow Overlap Calculations

OS:SurfaceConvectionAlgorithm:Inside,
  {aaabfc36-718a-4ab0-b622-f186ebb45230}, !- Handle
  TARP;                                   !- Algorithm

OS:SurfaceConvectionAlgorithm:Outside,
  {9a0a9f6f-4bbd-4b12-a121-9492a1fcd7d6}, !- Handle
  DOE-2;                                  !- Algorithm

OS:HeatBalanceAlgorithm,
  {9d93e563-e1e0-46d7-9e39-d1c8aceb7212}, !- Handle
  ConductionTransferFunction,             !- Algorithm
  200;                                    !- Surface Temperature Upper Limit {C}

OS:ZoneCapacitanceMultiplier:ResearchSpecial,
  {6bfced16-b16f-47f6-8223-f7e267d75d19}, !- Handle
  ,                                       !- Temperature Capacity Multiplier
  15,                                     !- Humidity Capacity Multiplier
  ;                                       !- Carbon Dioxide Capacity Multiplier

OS:ThermalZone,
  {f2a19967-fb5c-4276-8cad-856c59c20868}, !- Handle
  living zone,                            !- Name
  ,                                       !- Multiplier
  ,                                       !- Ceiling Height {m}
  ,                                       !- Volume {m3}
  ,                                       !- Floor Area {m2}
  ,                                       !- Zone Inside Convection Algorithm
  ,                                       !- Zone Outside Convection Algorithm
  ,                                       !- Zone Conditioning Equipment List Name
  {eedf7e75-9294-4d55-8875-ecbf3ca7a199}, !- Zone Air Inlet Port List
  {65692b17-147b-45fb-9e78-79d056625883}, !- Zone Air Exhaust Port List
  {8c2fa843-c11a-4084-90ee-bb3828556bb2}, !- Zone Air Node Name
  ,                                       !- Zone Return Air Node Name
  ,                                       !- Primary Daylighting Control Name
  ,                                       !- Fraction of Zone Controlled by Primary Daylighting Control
  ,                                       !- Secondary Daylighting Control Name
  ,                                       !- Fraction of Zone Controlled by Secondary Daylighting Control
  ,                                       !- Illuminance Map Name
  ,                                       !- Group Rendering Name
  ,                                       !- Thermostat Name
  No;                                     !- Use Ideal Air Loads

OS:Node,
  {6f31e163-271b-4578-a93e-b291f3cdea4d}, !- Handle
  Node 1,                                 !- Name
  {8c2fa843-c11a-4084-90ee-bb3828556bb2}, !- Inlet Port
  ;                                       !- Outlet Port

OS:Connection,
  {8c2fa843-c11a-4084-90ee-bb3828556bb2}, !- Handle
  {fc119b9b-9501-471c-ae19-f1d49148a6b7}, !- Name
  {f2a19967-fb5c-4276-8cad-856c59c20868}, !- Source Object
  11,                                     !- Outlet Port
  {6f31e163-271b-4578-a93e-b291f3cdea4d}, !- Target Object
  2;                                      !- Inlet Port

OS:PortList,
  {eedf7e75-9294-4d55-8875-ecbf3ca7a199}, !- Handle
  {777f8325-e346-48b5-a0fc-5e43c3eca960}, !- Name
  {f2a19967-fb5c-4276-8cad-856c59c20868}; !- HVAC Component

OS:PortList,
  {65692b17-147b-45fb-9e78-79d056625883}, !- Handle
  {cba0942b-9404-4997-83c9-4b583999e8b9}, !- Name
  {f2a19967-fb5c-4276-8cad-856c59c20868}; !- HVAC Component

OS:Sizing:Zone,
  {c0a7a1db-195d-43e6-805b-5773012c74a0}, !- Handle
  {f2a19967-fb5c-4276-8cad-856c59c20868}, !- Zone or ZoneList Name
  SupplyAirTemperature,                   !- Zone Cooling Design Supply Air Temperature Input Method
  14,                                     !- Zone Cooling Design Supply Air Temperature {C}
  11.11,                                  !- Zone Cooling Design Supply Air Temperature Difference {deltaC}
  SupplyAirTemperature,                   !- Zone Heating Design Supply Air Temperature Input Method
  40,                                     !- Zone Heating Design Supply Air Temperature {C}
  11.11,                                  !- Zone Heating Design Supply Air Temperature Difference {deltaC}
  0.0085,                                 !- Zone Cooling Design Supply Air Humidity Ratio {kg-H2O/kg-air}
  0.008,                                  !- Zone Heating Design Supply Air Humidity Ratio {kg-H2O/kg-air}
  ,                                       !- Zone Heating Sizing Factor
  ,                                       !- Zone Cooling Sizing Factor
  DesignDay,                              !- Cooling Design Air Flow Method
  ,                                       !- Cooling Design Air Flow Rate {m3/s}
  ,                                       !- Cooling Minimum Air Flow per Zone Floor Area {m3/s-m2}
  ,                                       !- Cooling Minimum Air Flow {m3/s}
  ,                                       !- Cooling Minimum Air Flow Fraction
  DesignDay,                              !- Heating Design Air Flow Method
  ,                                       !- Heating Design Air Flow Rate {m3/s}
  ,                                       !- Heating Maximum Air Flow per Zone Floor Area {m3/s-m2}
  ,                                       !- Heating Maximum Air Flow {m3/s}
  ,                                       !- Heating Maximum Air Flow Fraction
  ,                                       !- Design Zone Air Distribution Effectiveness in Cooling Mode
  ,                                       !- Design Zone Air Distribution Effectiveness in Heating Mode
  No,                                     !- Account for Dedicated Outdoor Air System
  NeutralSupplyAir,                       !- Dedicated Outdoor Air System Control Strategy
  autosize,                               !- Dedicated Outdoor Air Low Setpoint Temperature for Design {C}
  autosize;                               !- Dedicated Outdoor Air High Setpoint Temperature for Design {C}

OS:ZoneHVAC:EquipmentList,
  {f4e20318-7f24-4d15-b93a-95ccf8a001d9}, !- Handle
  Zone HVAC Equipment List 1,             !- Name
  {f2a19967-fb5c-4276-8cad-856c59c20868}; !- Thermal Zone

OS:Space,
  {97185915-96ba-41f4-83c0-dabf4cebba18}, !- Handle
  living space,                           !- Name
  ,                                       !- Space Type Name
  ,                                       !- Default Construction Set Name
  ,                                       !- Default Schedule Set Name
  -0,                                     !- Direction of Relative North {deg}
  0,                                      !- X Origin {m}
  0,                                      !- Y Origin {m}
  0,                                      !- Z Origin {m}
  ,                                       !- Building Story Name
  {f2a19967-fb5c-4276-8cad-856c59c20868}, !- Thermal Zone Name
  ,                                       !- Part of Total Floor Area
  ,                                       !- Design Specification Outdoor Air Object Name
  {7f5459b0-5ffa-417d-a4b4-bb580b68f723}; !- Building Unit Name

OS:Surface,
  {f3055ca4-72a0-47f5-ae2e-7485cf42f3a2}, !- Handle
  Surface 1,                              !- Name
  Floor,                                  !- Surface Type
  ,                                       !- Construction Name
  {97185915-96ba-41f4-83c0-dabf4cebba18}, !- Space Name
  Ground,                                 !- Outside Boundary Condition
  ,                                       !- Outside Boundary Condition Object
  NoSun,                                  !- Sun Exposure
  NoWind,                                 !- Wind Exposure
  ,                                       !- View Factor to Ground
  ,                                       !- Number of Vertices
  0, 0, 0,                                !- X,Y,Z Vertex 1 {m}
  0, 6.81553519541936, 0,                 !- X,Y,Z Vertex 2 {m}
  13.6310703908387, 6.81553519541936, 0,  !- X,Y,Z Vertex 3 {m}
  13.6310703908387, 0, 0;                 !- X,Y,Z Vertex 4 {m}

OS:Surface,
  {67797be8-b708-4f04-99b7-29f3c53654c0}, !- Handle
  Surface 2,                              !- Name
  Wall,                                   !- Surface Type
  {f232e9a4-fb31-4f5c-bd9b-f534ebe3a4b4}, !- Construction Name
  {97185915-96ba-41f4-83c0-dabf4cebba18}, !- Space Name
  Outdoors,                               !- Outside Boundary Condition
  ,                                       !- Outside Boundary Condition Object
  SunExposed,                             !- Sun Exposure
  WindExposed,                            !- Wind Exposure
  ,                                       !- View Factor to Ground
  ,                                       !- Number of Vertices
  0, 6.81553519541936, 2.4384,            !- X,Y,Z Vertex 1 {m}
  0, 6.81553519541936, 0,                 !- X,Y,Z Vertex 2 {m}
  0, 0, 0,                                !- X,Y,Z Vertex 3 {m}
  0, 0, 2.4384;                           !- X,Y,Z Vertex 4 {m}

OS:Surface,
  {df292293-eb7f-4928-aec0-a6a96ebaa9e8}, !- Handle
  Surface 3,                              !- Name
  Wall,                                   !- Surface Type
  {f232e9a4-fb31-4f5c-bd9b-f534ebe3a4b4}, !- Construction Name
  {97185915-96ba-41f4-83c0-dabf4cebba18}, !- Space Name
  Outdoors,                               !- Outside Boundary Condition
  ,                                       !- Outside Boundary Condition Object
  SunExposed,                             !- Sun Exposure
  WindExposed,                            !- Wind Exposure
  ,                                       !- View Factor to Ground
  ,                                       !- Number of Vertices
  13.6310703908387, 6.81553519541936, 2.4384, !- X,Y,Z Vertex 1 {m}
  13.6310703908387, 6.81553519541936, 0,  !- X,Y,Z Vertex 2 {m}
  0, 6.81553519541936, 0,                 !- X,Y,Z Vertex 3 {m}
  0, 6.81553519541936, 2.4384;            !- X,Y,Z Vertex 4 {m}

OS:Surface,
  {d409fd4f-bb81-4a68-9b46-45f1a2c47e43}, !- Handle
  Surface 4,                              !- Name
  Wall,                                   !- Surface Type
  {f232e9a4-fb31-4f5c-bd9b-f534ebe3a4b4}, !- Construction Name
  {97185915-96ba-41f4-83c0-dabf4cebba18}, !- Space Name
  Outdoors,                               !- Outside Boundary Condition
  ,                                       !- Outside Boundary Condition Object
  SunExposed,                             !- Sun Exposure
  WindExposed,                            !- Wind Exposure
  ,                                       !- View Factor to Ground
  ,                                       !- Number of Vertices
  13.6310703908387, 0, 2.4384,            !- X,Y,Z Vertex 1 {m}
  13.6310703908387, 0, 0,                 !- X,Y,Z Vertex 2 {m}
  13.6310703908387, 6.81553519541936, 0,  !- X,Y,Z Vertex 3 {m}
  13.6310703908387, 6.81553519541936, 2.4384; !- X,Y,Z Vertex 4 {m}

OS:Surface,
  {4a508934-87d1-431f-bc68-d157359c4580}, !- Handle
  Surface 5,                              !- Name
  Wall,                                   !- Surface Type
  {f232e9a4-fb31-4f5c-bd9b-f534ebe3a4b4}, !- Construction Name
  {97185915-96ba-41f4-83c0-dabf4cebba18}, !- Space Name
  Outdoors,                               !- Outside Boundary Condition
  ,                                       !- Outside Boundary Condition Object
  SunExposed,                             !- Sun Exposure
  WindExposed,                            !- Wind Exposure
  ,                                       !- View Factor to Ground
  ,                                       !- Number of Vertices
  0, 0, 2.4384,                           !- X,Y,Z Vertex 1 {m}
  0, 0, 0,                                !- X,Y,Z Vertex 2 {m}
  13.6310703908387, 0, 0,                 !- X,Y,Z Vertex 3 {m}
  13.6310703908387, 0, 2.4384;            !- X,Y,Z Vertex 4 {m}

OS:Surface,
  {bc0b6928-56c0-442b-8696-bce331e82320}, !- Handle
  Surface 6,                              !- Name
  RoofCeiling,                            !- Surface Type
  {0320508b-220c-4156-95fd-819302df7ff8}, !- Construction Name
  {97185915-96ba-41f4-83c0-dabf4cebba18}, !- Space Name
  Surface,                                !- Outside Boundary Condition
  {223ece03-57f6-4496-a0ca-e96302642a6c}, !- Outside Boundary Condition Object
  NoSun,                                  !- Sun Exposure
  NoWind,                                 !- Wind Exposure
  ,                                       !- View Factor to Ground
  ,                                       !- Number of Vertices
  13.6310703908387, 0, 2.4384,            !- X,Y,Z Vertex 1 {m}
  13.6310703908387, 6.81553519541936, 2.4384, !- X,Y,Z Vertex 2 {m}
  0, 6.81553519541936, 2.4384,            !- X,Y,Z Vertex 3 {m}
  0, 0, 2.4384;                           !- X,Y,Z Vertex 4 {m}

OS:Space,
  {1f60ee20-eadd-44e6-9541-389e387139c8}, !- Handle
  living space|story 2,                   !- Name
  ,                                       !- Space Type Name
  ,                                       !- Default Construction Set Name
  ,                                       !- Default Schedule Set Name
  -0,                                     !- Direction of Relative North {deg}
  0,                                      !- X Origin {m}
  0,                                      !- Y Origin {m}
  2.4384,                                 !- Z Origin {m}
  ,                                       !- Building Story Name
  {f2a19967-fb5c-4276-8cad-856c59c20868}, !- Thermal Zone Name
  ,                                       !- Part of Total Floor Area
  ,                                       !- Design Specification Outdoor Air Object Name
  {7f5459b0-5ffa-417d-a4b4-bb580b68f723}; !- Building Unit Name

OS:Surface,
  {223ece03-57f6-4496-a0ca-e96302642a6c}, !- Handle
  Surface 7,                              !- Name
  Floor,                                  !- Surface Type
  {0320508b-220c-4156-95fd-819302df7ff8}, !- Construction Name
  {1f60ee20-eadd-44e6-9541-389e387139c8}, !- Space Name
  Surface,                                !- Outside Boundary Condition
  {bc0b6928-56c0-442b-8696-bce331e82320}, !- Outside Boundary Condition Object
  NoSun,                                  !- Sun Exposure
  NoWind,                                 !- Wind Exposure
  ,                                       !- View Factor to Ground
  ,                                       !- Number of Vertices
  0, 0, 0,                                !- X,Y,Z Vertex 1 {m}
  0, 6.81553519541936, 0,                 !- X,Y,Z Vertex 2 {m}
  13.6310703908387, 6.81553519541936, 0,  !- X,Y,Z Vertex 3 {m}
  13.6310703908387, 0, 0;                 !- X,Y,Z Vertex 4 {m}

OS:Surface,
  {255bfe82-e1e6-49ab-a407-337ea8942f70}, !- Handle
  Surface 8,                              !- Name
  Wall,                                   !- Surface Type
  {f232e9a4-fb31-4f5c-bd9b-f534ebe3a4b4}, !- Construction Name
  {1f60ee20-eadd-44e6-9541-389e387139c8}, !- Space Name
  Outdoors,                               !- Outside Boundary Condition
  ,                                       !- Outside Boundary Condition Object
  SunExposed,                             !- Sun Exposure
  WindExposed,                            !- Wind Exposure
  ,                                       !- View Factor to Ground
  ,                                       !- Number of Vertices
  0, 6.81553519541936, 2.4384,            !- X,Y,Z Vertex 1 {m}
  0, 6.81553519541936, 0,                 !- X,Y,Z Vertex 2 {m}
  0, 0, 0,                                !- X,Y,Z Vertex 3 {m}
  0, 0, 2.4384;                           !- X,Y,Z Vertex 4 {m}

OS:Surface,
  {a9a52034-4eab-47b6-b39b-8013708fa3a8}, !- Handle
  Surface 9,                              !- Name
  Wall,                                   !- Surface Type
  {f232e9a4-fb31-4f5c-bd9b-f534ebe3a4b4}, !- Construction Name
  {1f60ee20-eadd-44e6-9541-389e387139c8}, !- Space Name
  Outdoors,                               !- Outside Boundary Condition
  ,                                       !- Outside Boundary Condition Object
  SunExposed,                             !- Sun Exposure
  WindExposed,                            !- Wind Exposure
  ,                                       !- View Factor to Ground
  ,                                       !- Number of Vertices
  13.6310703908387, 6.81553519541936, 2.4384, !- X,Y,Z Vertex 1 {m}
  13.6310703908387, 6.81553519541936, 0,  !- X,Y,Z Vertex 2 {m}
  0, 6.81553519541936, 0,                 !- X,Y,Z Vertex 3 {m}
  0, 6.81553519541936, 2.4384;            !- X,Y,Z Vertex 4 {m}

OS:Surface,
  {f99f0b1b-1ca0-49aa-9806-df9eddb65c5a}, !- Handle
  Surface 10,                             !- Name
  Wall,                                   !- Surface Type
  {f232e9a4-fb31-4f5c-bd9b-f534ebe3a4b4}, !- Construction Name
  {1f60ee20-eadd-44e6-9541-389e387139c8}, !- Space Name
  Outdoors,                               !- Outside Boundary Condition
  ,                                       !- Outside Boundary Condition Object
  SunExposed,                             !- Sun Exposure
  WindExposed,                            !- Wind Exposure
  ,                                       !- View Factor to Ground
  ,                                       !- Number of Vertices
  13.6310703908387, 0, 2.4384,            !- X,Y,Z Vertex 1 {m}
  13.6310703908387, 0, 0,                 !- X,Y,Z Vertex 2 {m}
  13.6310703908387, 6.81553519541936, 0,  !- X,Y,Z Vertex 3 {m}
  13.6310703908387, 6.81553519541936, 2.4384; !- X,Y,Z Vertex 4 {m}

OS:Surface,
  {25ae8f8d-cfdf-4077-aa2f-536dc68833f6}, !- Handle
  Surface 11,                             !- Name
  Wall,                                   !- Surface Type
  {f232e9a4-fb31-4f5c-bd9b-f534ebe3a4b4}, !- Construction Name
  {1f60ee20-eadd-44e6-9541-389e387139c8}, !- Space Name
  Outdoors,                               !- Outside Boundary Condition
  ,                                       !- Outside Boundary Condition Object
  SunExposed,                             !- Sun Exposure
  WindExposed,                            !- Wind Exposure
  ,                                       !- View Factor to Ground
  ,                                       !- Number of Vertices
  0, 0, 2.4384,                           !- X,Y,Z Vertex 1 {m}
  0, 0, 0,                                !- X,Y,Z Vertex 2 {m}
  13.6310703908387, 0, 0,                 !- X,Y,Z Vertex 3 {m}
  13.6310703908387, 0, 2.4384;            !- X,Y,Z Vertex 4 {m}

OS:Surface,
  {7e89ef56-a927-402e-928c-c0b74e5dbce9}, !- Handle
  Surface 12,                             !- Name
  RoofCeiling,                            !- Surface Type
  {2486534c-6be5-44bc-a1ca-f9fe7cafbb8d}, !- Construction Name
  {1f60ee20-eadd-44e6-9541-389e387139c8}, !- Space Name
  Surface,                                !- Outside Boundary Condition
  {012301d8-7e3d-4532-a921-7b8d22991eb6}, !- Outside Boundary Condition Object
  NoSun,                                  !- Sun Exposure
  NoWind,                                 !- Wind Exposure
  ,                                       !- View Factor to Ground
  ,                                       !- Number of Vertices
  13.6310703908387, 0, 2.4384,            !- X,Y,Z Vertex 1 {m}
  13.6310703908387, 6.81553519541936, 2.4384, !- X,Y,Z Vertex 2 {m}
  0, 6.81553519541936, 2.4384,            !- X,Y,Z Vertex 3 {m}
  0, 0, 2.4384;                           !- X,Y,Z Vertex 4 {m}

OS:Surface,
  {012301d8-7e3d-4532-a921-7b8d22991eb6}, !- Handle
  Surface 13,                             !- Name
  Floor,                                  !- Surface Type
  {7b861d02-0933-4d78-b3bd-66b8b3e29149}, !- Construction Name
  {4e2b981a-7519-409a-87e6-6fe5f95a383b}, !- Space Name
  Surface,                                !- Outside Boundary Condition
  {7e89ef56-a927-402e-928c-c0b74e5dbce9}, !- Outside Boundary Condition Object
  NoSun,                                  !- Sun Exposure
  NoWind,                                 !- Wind Exposure
  ,                                       !- View Factor to Ground
  ,                                       !- Number of Vertices
  0, 6.81553519541936, 0,                 !- X,Y,Z Vertex 1 {m}
  13.6310703908387, 6.81553519541936, 0,  !- X,Y,Z Vertex 2 {m}
  13.6310703908387, 0, 0,                 !- X,Y,Z Vertex 3 {m}
  0, 0, 0;                                !- X,Y,Z Vertex 4 {m}

OS:Surface,
  {61560542-b521-41e7-bb67-33fd395a85e9}, !- Handle
  Surface 14,                             !- Name
  RoofCeiling,                            !- Surface Type
  {4d00d83c-10e4-4a80-8a15-38c70a7b4b89}, !- Construction Name
  {4e2b981a-7519-409a-87e6-6fe5f95a383b}, !- Space Name
  Outdoors,                               !- Outside Boundary Condition
  ,                                       !- Outside Boundary Condition Object
  SunExposed,                             !- Sun Exposure
  WindExposed,                            !- Wind Exposure
  ,                                       !- View Factor to Ground
  ,                                       !- Number of Vertices
  13.6310703908387, 3.40776759770968, 1.70388379885484, !- X,Y,Z Vertex 1 {m}
  0, 3.40776759770968, 1.70388379885484,  !- X,Y,Z Vertex 2 {m}
  0, 0, 0,                                !- X,Y,Z Vertex 3 {m}
  13.6310703908387, 0, 0;                 !- X,Y,Z Vertex 4 {m}

OS:Surface,
  {d34ca1ff-e780-46c5-aebf-74c9c7d8b9e8}, !- Handle
  Surface 15,                             !- Name
  RoofCeiling,                            !- Surface Type
  {4d00d83c-10e4-4a80-8a15-38c70a7b4b89}, !- Construction Name
  {4e2b981a-7519-409a-87e6-6fe5f95a383b}, !- Space Name
  Outdoors,                               !- Outside Boundary Condition
  ,                                       !- Outside Boundary Condition Object
  SunExposed,                             !- Sun Exposure
  WindExposed,                            !- Wind Exposure
  ,                                       !- View Factor to Ground
  ,                                       !- Number of Vertices
  0, 3.40776759770968, 1.70388379885484,  !- X,Y,Z Vertex 1 {m}
  13.6310703908387, 3.40776759770968, 1.70388379885484, !- X,Y,Z Vertex 2 {m}
  13.6310703908387, 6.81553519541936, 0,  !- X,Y,Z Vertex 3 {m}
  0, 6.81553519541936, 0;                 !- X,Y,Z Vertex 4 {m}

OS:Surface,
  {127b41c9-f67d-4ae3-84e7-80542e99fc47}, !- Handle
  Surface 16,                             !- Name
  Wall,                                   !- Surface Type
  {6b347946-86e2-48dd-ad5d-3d32ce39cfe8}, !- Construction Name
  {4e2b981a-7519-409a-87e6-6fe5f95a383b}, !- Space Name
  Outdoors,                               !- Outside Boundary Condition
  ,                                       !- Outside Boundary Condition Object
  SunExposed,                             !- Sun Exposure
  WindExposed,                            !- Wind Exposure
  ,                                       !- View Factor to Ground
  ,                                       !- Number of Vertices
  0, 3.40776759770968, 1.70388379885484,  !- X,Y,Z Vertex 1 {m}
  0, 6.81553519541936, 0,                 !- X,Y,Z Vertex 2 {m}
  0, 0, 0;                                !- X,Y,Z Vertex 3 {m}

OS:Surface,
  {2ba70352-c2be-4486-943c-62eafc930dcf}, !- Handle
  Surface 17,                             !- Name
  Wall,                                   !- Surface Type
  {6b347946-86e2-48dd-ad5d-3d32ce39cfe8}, !- Construction Name
  {4e2b981a-7519-409a-87e6-6fe5f95a383b}, !- Space Name
  Outdoors,                               !- Outside Boundary Condition
  ,                                       !- Outside Boundary Condition Object
  SunExposed,                             !- Sun Exposure
  WindExposed,                            !- Wind Exposure
  ,                                       !- View Factor to Ground
  ,                                       !- Number of Vertices
  13.6310703908387, 3.40776759770968, 1.70388379885484, !- X,Y,Z Vertex 1 {m}
  13.6310703908387, 0, 0,                 !- X,Y,Z Vertex 2 {m}
  13.6310703908387, 6.81553519541936, 0;  !- X,Y,Z Vertex 3 {m}

OS:Space,
  {4e2b981a-7519-409a-87e6-6fe5f95a383b}, !- Handle
  unfinished attic space,                 !- Name
  ,                                       !- Space Type Name
  ,                                       !- Default Construction Set Name
  ,                                       !- Default Schedule Set Name
  -0,                                     !- Direction of Relative North {deg}
  0,                                      !- X Origin {m}
  0,                                      !- Y Origin {m}
  4.8768,                                 !- Z Origin {m}
  ,                                       !- Building Story Name
  {40976597-4208-4de6-905d-a9618c2d745a}, !- Thermal Zone Name
  ,                                       !- Part of Total Floor Area
  ,                                       !- Design Specification Outdoor Air Object Name
  {7f5459b0-5ffa-417d-a4b4-bb580b68f723}; !- Building Unit Name

OS:ThermalZone,
  {40976597-4208-4de6-905d-a9618c2d745a}, !- Handle
  unfinished attic zone,                  !- Name
  ,                                       !- Multiplier
  ,                                       !- Ceiling Height {m}
  ,                                       !- Volume {m3}
  ,                                       !- Floor Area {m2}
  ,                                       !- Zone Inside Convection Algorithm
  ,                                       !- Zone Outside Convection Algorithm
  ,                                       !- Zone Conditioning Equipment List Name
  {60a359de-a987-4d42-98d7-af476d0992a0}, !- Zone Air Inlet Port List
  {216200dc-ff82-418f-98ba-f98bf3e391ac}, !- Zone Air Exhaust Port List
  {79b191c7-f9b7-4fc5-977b-700eccfcbb1b}, !- Zone Air Node Name
  ,                                       !- Zone Return Air Node Name
  ,                                       !- Primary Daylighting Control Name
  ,                                       !- Fraction of Zone Controlled by Primary Daylighting Control
  ,                                       !- Secondary Daylighting Control Name
  ,                                       !- Fraction of Zone Controlled by Secondary Daylighting Control
  ,                                       !- Illuminance Map Name
  ,                                       !- Group Rendering Name
  ,                                       !- Thermostat Name
  No;                                     !- Use Ideal Air Loads

OS:Node,
  {c7e08c63-3730-4b6f-ac2a-24c505e3d213}, !- Handle
  Node 2,                                 !- Name
  {79b191c7-f9b7-4fc5-977b-700eccfcbb1b}, !- Inlet Port
  ;                                       !- Outlet Port

OS:Connection,
  {79b191c7-f9b7-4fc5-977b-700eccfcbb1b}, !- Handle
  {c061f36d-c63d-450c-bf35-afeb48bc989b}, !- Name
  {40976597-4208-4de6-905d-a9618c2d745a}, !- Source Object
  11,                                     !- Outlet Port
  {c7e08c63-3730-4b6f-ac2a-24c505e3d213}, !- Target Object
  2;                                      !- Inlet Port

OS:PortList,
  {60a359de-a987-4d42-98d7-af476d0992a0}, !- Handle