!- NOTE: Auto-generated from /test/osw_files/SFD_2000sqft_2story_SL_UA_AllLayersButWallThermalMass_CeilingIns.osw

OS:Version,
  {29bbd353-bcbe-4e75-8167-438cf6bba23f}, !- Handle
  2.3.1;                                  !- Version Identifier

OS:Building,
  {bf305633-c5a1-4881-9edf-ca5e1a8e1274}, !- Handle
  Building,                               !- Name
  ,                                       !- Building Sector Type
  ,                                       !- North Axis {deg}
  ,                                       !- Nominal Floor to Floor Height {m}
  ,                                       !- Space Type Name
  ,                                       !- Default Construction Set Name
  ,                                       !- Default Schedule Set Name
  2,                                      !- Standards Number of Stories
  2,                                      !- Standards Number of Above Ground Stories
  singlefamilydetached,                   !- Standards Building Type
  1;                                      !- Standards Number of Living Units

OS:YearDescription,
  {513d8dda-86cb-442a-b01c-1f7f0e0ac70e}; !- Handle

OS:SimulationControl,
  {2c487a4c-bac9-4ac5-b669-1e49d9da7c2b}, !- Handle
  ,                                       !- Do Zone Sizing Calculation
  ,                                       !- Do System Sizing Calculation
  ,                                       !- Do Plant Sizing Calculation
  No,                                     !- Run Simulation for Sizing Periods
  ;                                       !- Run Simulation for Weather File Run Periods

OS:Timestep,
  {4ebc9f1e-4707-402e-9844-67eb1ffbd522}, !- Handle
  6;                                      !- Number of Timesteps per Hour

OS:RunPeriod,
  {28df894d-6af9-4fb8-8f56-df1753344aa3}, !- Handle
  Run Period,                             !- Name
  1,                                      !- Begin Month
  1,                                      !- Begin Day of Month
  12,                                     !- End Month
  31,                                     !- End Day of Month
  ,                                       !- Use Weather File Holidays and Special Days
  ,                                       !- Use Weather File Daylight Saving Period
  ,                                       !- Apply Weekend Holiday Rule
  ,                                       !- Use Weather File Rain Indicators
  ,                                       !- Use Weather File Snow Indicators
  ;                                       !- Number of Times Runperiod to be Repeated

OS:Sizing:Parameters,
  {dde5af6f-7923-4600-a28a-7556673a0266}, !- Handle
  1.0,                                    !- Heating Sizing Factor
  1.0;                                    !- Cooling Sizing Factor

OS:ShadowCalculation,
  {ca758bea-4416-4626-9bba-3d8795c79bd6}, !- Handle
  20,                                     !- Calculation Frequency
  200;                                    !- Maximum Figures in Shadow Overlap Calculations

OS:SurfaceConvectionAlgorithm:Inside,
  {aaabfc36-718a-4ab0-b622-f186ebb45230}, !- Handle
  TARP;                                   !- Algorithm

OS:SurfaceConvectionAlgorithm:Outside,
  {9a0a9f6f-4bbd-4b12-a121-9492a1fcd7d6}, !- Handle
  DOE-2;                                  !- Algorithm

OS:HeatBalanceAlgorithm,
  {9d93e563-e1e0-46d7-9e39-d1c8aceb7212}, !- Handle
  ConductionTransferFunction,             !- Algorithm
  200;                                    !- Surface Temperature Upper Limit {C}

OS:ZoneCapacitanceMultiplier:ResearchSpecial,
  {6bfced16-b16f-47f6-8223-f7e267d75d19}, !- Handle
  ,                                       !- Temperature Capacity Multiplier
  15,                                     !- Humidity Capacity Multiplier
  ;                                       !- Carbon Dioxide Capacity Multiplier

OS:ThermalZone,
  {6d221ca0-e5d7-4a42-ad71-1077565f4c2c}, !- Handle
  living zone,                            !- Name
  ,                                       !- Multiplier
  ,                                       !- Ceiling Height {m}
  ,                                       !- Volume {m3}
  ,                                       !- Floor Area {m2}
  ,                                       !- Zone Inside Convection Algorithm
  ,                                       !- Zone Outside Convection Algorithm
  ,                                       !- Zone Conditioning Equipment List Name
  {9fbb7554-58a0-4abf-9c5b-3b3538e984f6}, !- Zone Air Inlet Port List
  {4ddff232-2d1c-489c-97cf-24e52f4d4753}, !- Zone Air Exhaust Port List
  {17a61686-0e2a-4a54-8524-dd26601e16ed}, !- Zone Air Node Name
  ,                                       !- Zone Return Air Node Name
  ,                                       !- Primary Daylighting Control Name
  ,                                       !- Fraction of Zone Controlled by Primary Daylighting Control
  ,                                       !- Secondary Daylighting Control Name
  ,                                       !- Fraction of Zone Controlled by Secondary Daylighting Control
  ,                                       !- Illuminance Map Name
  ,                                       !- Group Rendering Name
  ,                                       !- Thermostat Name
  No;                                     !- Use Ideal Air Loads

OS:Node,
  {cb8dc00a-b5d2-4746-8e28-82276af22136}, !- Handle
  Node 1,                                 !- Name
  {17a61686-0e2a-4a54-8524-dd26601e16ed}, !- Inlet Port
  ;                                       !- Outlet Port

OS:Connection,
  {17a61686-0e2a-4a54-8524-dd26601e16ed}, !- Handle
  {926346bd-a929-4295-aa42-d8fc3c455f3c}, !- Name
  {6d221ca0-e5d7-4a42-ad71-1077565f4c2c}, !- Source Object
  11,                                     !- Outlet Port
  {cb8dc00a-b5d2-4746-8e28-82276af22136}, !- Target Object
  2;                                      !- Inlet Port

OS:PortList,
  {9fbb7554-58a0-4abf-9c5b-3b3538e984f6}, !- Handle
  {20a0027b-c1b9-4478-9b72-b357d847f396}, !- Name
  {6d221ca0-e5d7-4a42-ad71-1077565f4c2c}; !- HVAC Component

OS:PortList,
  {4ddff232-2d1c-489c-97cf-24e52f4d4753}, !- Handle
  {7180594f-a983-4de2-a59d-905252eb8e86}, !- Name
  {6d221ca0-e5d7-4a42-ad71-1077565f4c2c}; !- HVAC Component

OS:Sizing:Zone,
  {293e6b9f-f9e3-4d0f-96bd-4f84ec69fba5}, !- Handle
  {6d221ca0-e5d7-4a42-ad71-1077565f4c2c}, !- Zone or ZoneList Name
  SupplyAirTemperature,                   !- Zone Cooling Design Supply Air Temperature Input Method
  14,                                     !- Zone Cooling Design Supply Air Temperature {C}
  11.11,                                  !- Zone Cooling Design Supply Air Temperature Difference {deltaC}
  SupplyAirTemperature,                   !- Zone Heating Design Supply Air Temperature Input Method
  40,                                     !- Zone Heating Design Supply Air Temperature {C}
  11.11,                                  !- Zone Heating Design Supply Air Temperature Difference {deltaC}
  0.0085,                                 !- Zone Cooling Design Supply Air Humidity Ratio {kg-H2O/kg-air}
  0.008,                                  !- Zone Heating Design Supply Air Humidity Ratio {kg-H2O/kg-air}
  ,                                       !- Zone Heating Sizing Factor
  ,                                       !- Zone Cooling Sizing Factor
  DesignDay,                              !- Cooling Design Air Flow Method
  ,                                       !- Cooling Design Air Flow Rate {m3/s}
  ,                                       !- Cooling Minimum Air Flow per Zone Floor Area {m3/s-m2}
  ,                                       !- Cooling Minimum Air Flow {m3/s}
  ,                                       !- Cooling Minimum Air Flow Fraction
  DesignDay,                              !- Heating Design Air Flow Method
  ,                                       !- Heating Design Air Flow Rate {m3/s}
  ,                                       !- Heating Maximum Air Flow per Zone Floor Area {m3/s-m2}
  ,                                       !- Heating Maximum Air Flow {m3/s}
  ,                                       !- Heating Maximum Air Flow Fraction
  ,                                       !- Design Zone Air Distribution Effectiveness in Cooling Mode
  ,                                       !- Design Zone Air Distribution Effectiveness in Heating Mode
  No,                                     !- Account for Dedicated Outdoor Air System
  NeutralSupplyAir,                       !- Dedicated Outdoor Air System Control Strategy
  autosize,                               !- Dedicated Outdoor Air Low Setpoint Temperature for Design {C}
  autosize;                               !- Dedicated Outdoor Air High Setpoint Temperature for Design {C}

OS:ZoneHVAC:EquipmentList,
  {0bc3fc18-9d13-4b05-aa95-163d42700d6e}, !- Handle
  Zone HVAC Equipment List 1,             !- Name
  {6d221ca0-e5d7-4a42-ad71-1077565f4c2c}; !- Thermal Zone

OS:Space,
  {f3a56323-a795-4b89-97e5-f6be49f0a2a6}, !- Handle
  living space,                           !- Name
  ,                                       !- Space Type Name
  ,                                       !- Default Construction Set Name
  ,                                       !- Default Schedule Set Name
  -0,                                     !- Direction of Relative North {deg}
  0,                                      !- X Origin {m}
  0,                                      !- Y Origin {m}
  0,                                      !- Z Origin {m}
  ,                                       !- Building Story Name
  {6d221ca0-e5d7-4a42-ad71-1077565f4c2c}, !- Thermal Zone Name
  ,                                       !- Part of Total Floor Area
  ,                                       !- Design Specification Outdoor Air Object Name
  {ad20d7ad-d854-43f9-8273-8e5b4cb0fdf3}; !- Building Unit Name

OS:Surface,
  {a29b2729-c4b1-443c-aa0a-061dae80f472}, !- Handle
  Surface 1,                              !- Name
  Floor,                                  !- Surface Type
  ,                                       !- Construction Name
  {f3a56323-a795-4b89-97e5-f6be49f0a2a6}, !- Space Name
  Ground,                                 !- Outside Boundary Condition
  ,                                       !- Outside Boundary Condition Object
  NoSun,                                  !- Sun Exposure
  NoWind,                                 !- Wind Exposure
  ,                                       !- View Factor to Ground
  ,                                       !- Number of Vertices
  0, 0, 0,                                !- X,Y,Z Vertex 1 {m}
  0, 6.81553519541936, 0,                 !- X,Y,Z Vertex 2 {m}
  13.6310703908387, 6.81553519541936, 0,  !- X,Y,Z Vertex 3 {m}
  13.6310703908387, 0, 0;                 !- X,Y,Z Vertex 4 {m}

OS:Surface,
  {9e39f129-8d1a-4915-8f59-adf0ea2f10e2}, !- Handle
  Surface 2,                              !- Name
  Wall,                                   !- Surface Type
  {bc524a41-fd1f-4083-ab39-fa2142d7de99}, !- Construction Name
  {f3a56323-a795-4b89-97e5-f6be49f0a2a6}, !- Space Name
  Outdoors,                               !- Outside Boundary Condition
  ,                                       !- Outside Boundary Condition Object
  SunExposed,                             !- Sun Exposure
  WindExposed,                            !- Wind Exposure
  ,                                       !- View Factor to Ground
  ,                                       !- Number of Vertices
  0, 6.81553519541936, 2.4384,            !- X,Y,Z Vertex 1 {m}
  0, 6.81553519541936, 0,                 !- X,Y,Z Vertex 2 {m}
  0, 0, 0,                                !- X,Y,Z Vertex 3 {m}
  0, 0, 2.4384;                           !- X,Y,Z Vertex 4 {m}

OS:Surface,
  {7eb9c58b-74a7-4b08-836c-3ec9e62c839b}, !- Handle
  Surface 3,                              !- Name
  Wall,                                   !- Surface Type
  {bc524a41-fd1f-4083-ab39-fa2142d7de99}, !- Construction Name
  {f3a56323-a795-4b89-97e5-f6be49f0a2a6}, !- Space Name
  Outdoors,                               !- Outside Boundary Condition
  ,                                       !- Outside Boundary Condition Object
  SunExposed,                             !- Sun Exposure
  WindExposed,                            !- Wind Exposure
  ,                                       !- View Factor to Ground
  ,                                       !- Number of Vertices
  13.6310703908387, 6.81553519541936, 2.4384, !- X,Y,Z Vertex 1 {m}
  13.6310703908387, 6.81553519541936, 0,  !- X,Y,Z Vertex 2 {m}
  0, 6.81553519541936, 0,                 !- X,Y,Z Vertex 3 {m}
  0, 6.81553519541936, 2.4384;            !- X,Y,Z Vertex 4 {m}

OS:Surface,
  {a4feb178-e1ac-4b6f-9e9f-57770110f92d}, !- Handle
  Surface 4,                              !- Name
  Wall,                                   !- Surface Type
  {bc524a41-fd1f-4083-ab39-fa2142d7de99}, !- Construction Name
  {f3a56323-a795-4b89-97e5-f6be49f0a2a6}, !- Space Name
  Outdoors,                               !- Outside Boundary Condition
  ,                                       !- Outside Boundary Condition Object
  SunExposed,                             !- Sun Exposure
  WindExposed,                            !- Wind Exposure
  ,                                       !- View Factor to Ground
  ,                                       !- Number of Vertices
  13.6310703908387, 0, 2.4384,            !- X,Y,Z Vertex 1 {m}
  13.6310703908387, 0, 0,                 !- X,Y,Z Vertex 2 {m}
  13.6310703908387, 6.81553519541936, 0,  !- X,Y,Z Vertex 3 {m}
  13.6310703908387, 6.81553519541936, 2.4384; !- X,Y,Z Vertex 4 {m}

OS:Surface,
  {58a938fc-53e3-4173-945e-4aaea935f39f}, !- Handle
  Surface 5,                              !- Name
  Wall,                                   !- Surface Type
  {bc524a41-fd1f-4083-ab39-fa2142d7de99}, !- Construction Name
  {f3a56323-a795-4b89-97e5-f6be49f0a2a6}, !- Space Name
  Outdoors,                               !- Outside Boundary Condition
  ,                                       !- Outside Boundary Condition Object
  SunExposed,                             !- Sun Exposure
  WindExposed,                            !- Wind Exposure
  ,                                       !- View Factor to Ground
  ,                                       !- Number of Vertices
  0, 0, 2.4384,                           !- X,Y,Z Vertex 1 {m}
  0, 0, 0,                                !- X,Y,Z Vertex 2 {m}
  13.6310703908387, 0, 0,                 !- X,Y,Z Vertex 3 {m}
  13.6310703908387, 0, 2.4384;            !- X,Y,Z Vertex 4 {m}

OS:Surface,
  {851fd7f3-baa6-480d-9747-fe9409d6c674}, !- Handle
  Surface 6,                              !- Name
  RoofCeiling,                            !- Surface Type
  {75cf8a38-1639-42df-95b1-23aa7b73b2ba}, !- Construction Name
  {f3a56323-a795-4b89-97e5-f6be49f0a2a6}, !- Space Name
  Surface,                                !- Outside Boundary Condition
  {848b9ba0-395c-4d97-9868-8617acc557b3}, !- Outside Boundary Condition Object
  NoSun,                                  !- Sun Exposure
  NoWind,                                 !- Wind Exposure
  ,                                       !- View Factor to Ground
  ,                                       !- Number of Vertices
  13.6310703908387, 0, 2.4384,            !- X,Y,Z Vertex 1 {m}
  13.6310703908387, 6.81553519541936, 2.4384, !- X,Y,Z Vertex 2 {m}
  0, 6.81553519541936, 2.4384,            !- X,Y,Z Vertex 3 {m}
  0, 0, 2.4384;                           !- X,Y,Z Vertex 4 {m}

OS:Space,
  {5f25d561-7abb-4a37-bda3-3da9b516bbac}, !- Handle
  living space|story 2,                   !- Name
  ,                                       !- Space Type Name
  ,                                       !- Default Construction Set Name
  ,                                       !- Default Schedule Set Name
  -0,                                     !- Direction of Relative North {deg}
  0,                                      !- X Origin {m}
  0,                                      !- Y Origin {m}
  2.4384,                                 !- Z Origin {m}
  ,                                       !- Building Story Name
  {6d221ca0-e5d7-4a42-ad71-1077565f4c2c}, !- Thermal Zone Name
  ,                                       !- Part of Total Floor Area
  ,                                       !- Design Specification Outdoor Air Object Name
  {ad20d7ad-d854-43f9-8273-8e5b4cb0fdf3}; !- Building Unit Name

OS:Surface,
  {848b9ba0-395c-4d97-9868-8617acc557b3}, !- Handle
  Surface 7,                              !- Name
  Floor,                                  !- Surface Type
  {75cf8a38-1639-42df-95b1-23aa7b73b2ba}, !- Construction Name
  {5f25d561-7abb-4a37-bda3-3da9b516bbac}, !- Space Name
  Surface,                                !- Outside Boundary Condition
  {851fd7f3-baa6-480d-9747-fe9409d6c674}, !- Outside Boundary Condition Object
  NoSun,                                  !- Sun Exposure
  NoWind,                                 !- Wind Exposure
  ,                                       !- View Factor to Ground
  ,                                       !- Number of Vertices
  0, 0, 0,                                !- X,Y,Z Vertex 1 {m}
  0, 6.81553519541936, 0,                 !- X,Y,Z Vertex 2 {m}
  13.6310703908387, 6.81553519541936, 0,  !- X,Y,Z Vertex 3 {m}
  13.6310703908387, 0, 0;                 !- X,Y,Z Vertex 4 {m}

OS:Surface,
  {db47675c-63a4-468d-b79f-03ce60cb0dad}, !- Handle
  Surface 8,                              !- Name
  Wall,                                   !- Surface Type
  {bc524a41-fd1f-4083-ab39-fa2142d7de99}, !- Construction Name
  {5f25d561-7abb-4a37-bda3-3da9b516bbac}, !- Space Name
  Outdoors,                               !- Outside Boundary Condition
  ,                                       !- Outside Boundary Condition Object
  SunExposed,                             !- Sun Exposure
  WindExposed,                            !- Wind Exposure
  ,                                       !- View Factor to Ground
  ,                                       !- Number of Vertices
  0, 6.81553519541936, 2.4384,            !- X,Y,Z Vertex 1 {m}
  0, 6.81553519541936, 0,                 !- X,Y,Z Vertex 2 {m}
  0, 0, 0,                                !- X,Y,Z Vertex 3 {m}
  0, 0, 2.4384;                           !- X,Y,Z Vertex 4 {m}

OS:Surface,
  {d7b21f2e-9f5b-4048-ad75-dcf886444d1a}, !- Handle
  Surface 9,                              !- Name
  Wall,                                   !- Surface Type
  {bc524a41-fd1f-4083-ab39-fa2142d7de99}, !- Construction Name
  {5f25d561-7abb-4a37-bda3-3da9b516bbac}, !- Space Name
  Outdoors,                               !- Outside Boundary Condition
  ,                                       !- Outside Boundary Condition Object
  SunExposed,                             !- Sun Exposure
  WindExposed,                            !- Wind Exposure
  ,                                       !- View Factor to Ground
  ,                                       !- Number of Vertices
  13.6310703908387, 6.81553519541936, 2.4384, !- X,Y,Z Vertex 1 {m}
  13.6310703908387, 6.81553519541936, 0,  !- X,Y,Z Vertex 2 {m}
  0, 6.81553519541936, 0,                 !- X,Y,Z Vertex 3 {m}
  0, 6.81553519541936, 2.4384;            !- X,Y,Z Vertex 4 {m}

OS:Surface,
  {50aaa18d-ec02-43ef-aa1b-d730d34d0f23}, !- Handle
  Surface 10,                             !- Name
  Wall,                                   !- Surface Type
  {bc524a41-fd1f-4083-ab39-fa2142d7de99}, !- Construction Name
  {5f25d561-7abb-4a37-bda3-3da9b516bbac}, !- Space Name
  Outdoors,                               !- Outside Boundary Condition
  ,                                       !- Outside Boundary Condition Object
  SunExposed,                             !- Sun Exposure
  WindExposed,                            !- Wind Exposure
  ,                                       !- View Factor to Ground
  ,                                       !- Number of Vertices
  13.6310703908387, 0, 2.4384,            !- X,Y,Z Vertex 1 {m}
  13.6310703908387, 0, 0,                 !- X,Y,Z Vertex 2 {m}
  13.6310703908387, 6.81553519541936, 0,  !- X,Y,Z Vertex 3 {m}
  13.6310703908387, 6.81553519541936, 2.4384; !- X,Y,Z Vertex 4 {m}

OS:Surface,
  {4160f2b4-5d01-4c0f-b53a-450443ec86fa}, !- Handle
  Surface 11,                             !- Name
  Wall,                                   !- Surface Type
  {bc524a41-fd1f-4083-ab39-fa2142d7de99}, !- Construction Name
  {5f25d561-7abb-4a37-bda3-3da9b516bbac}, !- Space Name
  Outdoors,                               !- Outside Boundary Condition
  ,                                       !- Outside Boundary Condition Object
  SunExposed,                             !- Sun Exposure
  WindExposed,                            !- Wind Exposure
  ,                                       !- View Factor to Ground
  ,                                       !- Number of Vertices
  0, 0, 2.4384,                           !- X,Y,Z Vertex 1 {m}
  0, 0, 0,                                !- X,Y,Z Vertex 2 {m}
  13.6310703908387, 0, 0,                 !- X,Y,Z Vertex 3 {m}
  13.6310703908387, 0, 2.4384;            !- X,Y,Z Vertex 4 {m}

OS:Surface,
  {f95b57ef-65b0-4afb-9d8c-7c7b49297d2b}, !- Handle
  Surface 12,                             !- Name
  RoofCeiling,                            !- Surface Type
  {ecae5b85-6ab6-434e-8b5b-5b99a7e11377}, !- Construction Name
  {5f25d561-7abb-4a37-bda3-3da9b516bbac}, !- Space Name
  Surface,                                !- Outside Boundary Condition
  {2baeeed4-283d-47be-9bc4-c5577cb63755}, !- Outside Boundary Condition Object
  NoSun,                                  !- Sun Exposure
  NoWind,                                 !- Wind Exposure
  ,                                       !- View Factor to Ground
  ,                                       !- Number of Vertices
  13.6310703908387, 0, 2.4384,            !- X,Y,Z Vertex 1 {m}
  13.6310703908387, 6.81553519541936, 2.4384, !- X,Y,Z Vertex 2 {m}
  0, 6.81553519541936, 2.4384,            !- X,Y,Z Vertex 3 {m}
  0, 0, 2.4384;                           !- X,Y,Z Vertex 4 {m}

OS:Surface,
  {2baeeed4-283d-47be-9bc4-c5577cb63755}, !- Handle
  Surface 13,                             !- Name
  Floor,                                  !- Surface Type
  {6e1d75a1-0a97-43c8-86f3-8a8a694adeda}, !- Construction Name
  {3f650ef5-edb4-4fd7-a8fd-e2738c876e68}, !- Space Name
  Surface,                                !- Outside Boundary Condition
  {f95b57ef-65b0-4afb-9d8c-7c7b49297d2b}, !- Outside Boundary Condition Object
  NoSun,                                  !- Sun Exposure
  NoWind,                                 !- Wind Exposure
  ,                                       !- View Factor to Ground
  ,                                       !- Number of Vertices
  0, 6.81553519541936, 0,                 !- X,Y,Z Vertex 1 {m}
  13.6310703908387, 6.81553519541936, 0,  !- X,Y,Z Vertex 2 {m}
  13.6310703908387, 0, 0,                 !- X,Y,Z Vertex 3 {m}
  0, 0, 0;                                !- X,Y,Z Vertex 4 {m}

OS:Surface,
  {86be04a3-8c20-4254-b96f-91a13a4723b2}, !- Handle
  Surface 14,                             !- Name
  RoofCeiling,                            !- Surface Type
  {966d0848-d4f7-4ba1-b697-be6e56c15296}, !- Construction Name
  {3f650ef5-edb4-4fd7-a8fd-e2738c876e68}, !- Space Name
  Outdoors,                               !- Outside Boundary Condition
  ,                                       !- Outside Boundary Condition Object
  SunExposed,                             !- Sun Exposure
  WindExposed,                            !- Wind Exposure
  ,                                       !- View Factor to Ground
  ,                                       !- Number of Vertices
  13.6310703908387, 3.40776759770968, 1.70388379885484, !- X,Y,Z Vertex 1 {m}
  0, 3.40776759770968, 1.70388379885484,  !- X,Y,Z Vertex 2 {m}
  0, 0, 0,                                !- X,Y,Z Vertex 3 {m}
  13.6310703908387, 0, 0;                 !- X,Y,Z Vertex 4 {m}

OS:Surface,
  {5c98f018-c89c-424f-8a7d-dd8fd7bf0aec}, !- Handle
  Surface 15,                             !- Name
  RoofCeiling,                            !- Surface Type
  {966d0848-d4f7-4ba1-b697-be6e56c15296}, !- Construction Name
  {3f650ef5-edb4-4fd7-a8fd-e2738c876e68}, !- Space Name
  Outdoors,                               !- Outside Boundary Condition
  ,                                       !- Outside Boundary Condition Object
  SunExposed,                             !- Sun Exposure
  WindExposed,                            !- Wind Exposure
  ,                                       !- View Factor to Ground
  ,                                       !- Number of Vertices
  0, 3.40776759770968, 1.70388379885484,  !- X,Y,Z Vertex 1 {m}
  13.6310703908387, 3.40776759770968, 1.70388379885484, !- X,Y,Z Vertex 2 {m}
  13.6310703908387, 6.81553519541936, 0,  !- X,Y,Z Vertex 3 {m}
  0, 6.81553519541936, 0;                 !- X,Y,Z Vertex 4 {m}

OS:Surface,
  {510bef5d-5d3e-4c85-8228-c0c67b7d129e}, !- Handle
  Surface 16,                             !- Name
  Wall,                                   !- Surface Type
  {2bd5c345-39ef-4f1e-b4ec-20cd13eb5266}, !- Construction Name
  {3f650ef5-edb4-4fd7-a8fd-e2738c876e68}, !- Space Name
  Outdoors,                               !- Outside Boundary Condition
  ,                                       !- Outside Boundary Condition Object
  SunExposed,                             !- Sun Exposure
  WindExposed,                            !- Wind Exposure
  ,                                       !- View Factor to Ground
  ,                                       !- Number of Vertices
  0, 3.40776759770968, 1.70388379885484,  !- X,Y,Z Vertex 1 {m}
  0, 6.81553519541936, 0,                 !- X,Y,Z Vertex 2 {m}
  0, 0, 0;                                !- X,Y,Z Vertex 3 {m}

OS:Surface,
  {30e6fcc5-0aa6-4ff7-9feb-6a1dcfaa36a3}, !- Handle
  Surface 17,                             !- Name
  Wall,                                   !- Surface Type
  {2bd5c345-39ef-4f1e-b4ec-20cd13eb5266}, !- Construction Name
  {3f650ef5-edb4-4fd7-a8fd-e2738c876e68}, !- Space Name
  Outdoors,                               !- Outside Boundary Condition
  ,                                       !- Outside Boundary Condition Object
  SunExposed,                             !- Sun Exposure
  WindExposed,                            !- Wind Exposure
  ,                                       !- View Factor to Ground
  ,                                       !- Number of Vertices
  13.6310703908387, 3.40776759770968, 1.70388379885484, !- X,Y,Z Vertex 1 {m}
  13.6310703908387, 0, 0,                 !- X,Y,Z Vertex 2 {m}
  13.6310703908387, 6.81553519541936, 0;  !- X,Y,Z Vertex 3 {m}

OS:Space,
  {3f650ef5-edb4-4fd7-a8fd-e2738c876e68}, !- Handle
  unfinished attic space,                 !- Name
  ,                                       !- Space Type Name
  ,                                       !- Default Construction Set Name
  ,                                       !- Default Schedule Set Name
  -0,                                     !- Direction of Relative North {deg}
  0,                                      !- X Origin {m}
  0,                                      !- Y Origin {m}
  4.8768,                                 !- Z Origin {m}
  ,                                       !- Building Story Name
  {662c30d5-75b7-47eb-8e7b-1ce1ebbed634}, !- Thermal Zone Name
  ,                                       !- Part of Total Floor Area
  ,                                       !- Design Specification Outdoor Air Object Name
  {ad20d7ad-d854-43f9-8273-8e5b4cb0fdf3}; !- Building Unit Name

OS:ThermalZone,
  {662c30d5-75b7-47eb-8e7b-1ce1ebbed634}, !- Handle
  unfinished attic zone,                  !- Name
  ,                                       !- Multiplier
  ,                                       !- Ceiling Height {m}
  ,                                       !- Volume {m3}
  ,                                       !- Floor Area {m2}
  ,                                       !- Zone Inside Convection Algorithm
  ,                                       !- Zone Outside Convection Algorithm
  ,                                       !- Zone Conditioning Equipment List Name
  {1da99ac8-090e-4ecb-b979-e13b728c385f}, !- Zone Air Inlet Port List
  {2a40795b-6be8-49ff-8697-63f8cfc0355f}, !- Zone Air Exhaust Port List
  {3ee371c5-6178-4b66-9421-cd9634a6f2ad}, !- Zone Air Node Name
  ,                                       !- Zone Return Air Node Name
  ,                                       !- Primary Daylighting Control Name
  ,                                       !- Fraction of Zone Controlled by Primary Daylighting Control
  ,                                       !- Secondary Daylighting Control Name
  ,                                       !- Fraction of Zone Controlled by Secondary Daylighting Control
  ,                                       !- Illuminance Map Name
  ,                                       !- Group Rendering Name
  ,                                       !- Thermostat Name
  No;                                     !- Use Ideal Air Loads

OS:Node,
  {af03a1c1-7bee-4f38-93c2-14629bb97573}, !- Handle
  Node 2,                                 !- Name
  {3ee371c5-6178-4b66-9421-cd9634a6f2ad}, !- Inlet Port
  ;                                       !- Outlet Port

OS:Connection,
  {3ee371c5-6178-4b66-9421-cd9634a6f2ad}, !- Handle
  {78275fe4-7cff-4509-b1ed-d18896e9293a}, !- Name
  {662c30d5-75b7-47eb-8e7b-1ce1ebbed634}, !- Source Object
  11,                                     !- Outlet Port
  {af03a1c1-7bee-4f38-93c2-14629bb97573}, !- Target Object
  2;                                      !- Inlet Port

OS:PortList,
  {1da99ac8-090e-4ecb-b979-e13b728c385f}, !- Handle