!- NOTE: Auto-generated from /test/osw_files/SFD_2000sqft_2story_SL_UA_AllLayersButWallThermalMass_CeilingIns.osw

OS:Version,
  {348dbe02-3d8e-4035-94ef-dcbd4e41e354}, !- Handle
  2.2.0;                                  !- Version Identifier

OS:Building,
  {bf305633-c5a1-4881-9edf-ca5e1a8e1274}, !- Handle
  Building,                               !- Name
  ,                                       !- Building Sector Type
  ,                                       !- North Axis {deg}
  ,                                       !- Nominal Floor to Floor Height {m}
  ,                                       !- Space Type Name
  ,                                       !- Default Construction Set Name
  ,                                       !- Default Schedule Set Name
  2,                                      !- Standards Number of Stories
  2,                                      !- Standards Number of Above Ground Stories
  singlefamilydetached,                   !- Standards Building Type
  1;                                      !- Standards Number of Living Units

OS:YearDescription,
  {513d8dda-86cb-442a-b01c-1f7f0e0ac70e}; !- Handle

OS:SimulationControl,
  {2c487a4c-bac9-4ac5-b669-1e49d9da7c2b}, !- Handle
  ,                                       !- Do Zone Sizing Calculation
  ,                                       !- Do System Sizing Calculation
  ,                                       !- Do Plant Sizing Calculation
  No,                                     !- Run Simulation for Sizing Periods
  ;                                       !- Run Simulation for Weather File Run Periods

OS:Timestep,
  {4ebc9f1e-4707-402e-9844-67eb1ffbd522}, !- Handle
  6;                                      !- Number of Timesteps per Hour

OS:RunPeriod,
  {28df894d-6af9-4fb8-8f56-df1753344aa3}, !- Handle
  Run Period,                             !- Name
  1,                                      !- Begin Month
  1,                                      !- Begin Day of Month
  12,                                     !- End Month
  31,                                     !- End Day of Month
  ,                                       !- Use Weather File Holidays and Special Days
  ,                                       !- Use Weather File Daylight Saving Period
  ,                                       !- Apply Weekend Holiday Rule
  ,                                       !- Use Weather File Rain Indicators
  ,                                       !- Use Weather File Snow Indicators
  ;                                       !- Number of Times Runperiod to be Repeated

OS:Sizing:Parameters,
  {dde5af6f-7923-4600-a28a-7556673a0266}, !- Handle
  1.0,                                    !- Heating Sizing Factor
  1.0;                                    !- Cooling Sizing Factor

OS:ShadowCalculation,
  {ca758bea-4416-4626-9bba-3d8795c79bd6}, !- Handle
  20,                                     !- Calculation Frequency
  200;                                    !- Maximum Figures in Shadow Overlap Calculations

OS:SurfaceConvectionAlgorithm:Inside,
  {aaabfc36-718a-4ab0-b622-f186ebb45230}, !- Handle
  TARP;                                   !- Algorithm

OS:SurfaceConvectionAlgorithm:Outside,
  {9a0a9f6f-4bbd-4b12-a121-9492a1fcd7d6}, !- Handle
  DOE-2;                                  !- Algorithm

OS:HeatBalanceAlgorithm,
  {9d93e563-e1e0-46d7-9e39-d1c8aceb7212}, !- Handle
  ConductionTransferFunction,             !- Algorithm
  200;                                    !- Surface Temperature Upper Limit {C}

OS:ZoneCapacitanceMultiplier:ResearchSpecial,
  {6bfced16-b16f-47f6-8223-f7e267d75d19}, !- Handle
  ,                                       !- Temperature Capacity Multiplier
  15,                                     !- Humidity Capacity Multiplier
  ;                                       !- Carbon Dioxide Capacity Multiplier

OS:ThermalZone,
  {5bd1098e-7314-4098-b42b-27c1d1c8821b}, !- Handle
  living zone,                            !- Name
  ,                                       !- Multiplier
  ,                                       !- Ceiling Height {m}
  ,                                       !- Volume {m3}
  ,                                       !- Floor Area {m2}
  ,                                       !- Zone Inside Convection Algorithm
  ,                                       !- Zone Outside Convection Algorithm
  ,                                       !- Zone Conditioning Equipment List Name
  {a681fea8-5dfd-4cd4-8f33-315472a151c5}, !- Zone Air Inlet Port List
  {c0d73a3d-e67a-4c83-aff2-d4ccbedc1224}, !- Zone Air Exhaust Port List
  {b92f75f5-583d-47f4-94e1-1671524820dd}, !- Zone Air Node Name
  ,                                       !- Zone Return Air Node Name
  ,                                       !- Primary Daylighting Control Name
  ,                                       !- Fraction of Zone Controlled by Primary Daylighting Control
  ,                                       !- Secondary Daylighting Control Name
  ,                                       !- Fraction of Zone Controlled by Secondary Daylighting Control
  ,                                       !- Illuminance Map Name
  ,                                       !- Group Rendering Name
  ,                                       !- Thermostat Name
  No;                                     !- Use Ideal Air Loads

OS:Node,
  {86eb2ed1-f9fa-4c37-a2d2-63af6a629fd5}, !- Handle
  Node 1,                                 !- Name
  {b92f75f5-583d-47f4-94e1-1671524820dd}, !- Inlet Port
  ;                                       !- Outlet Port

OS:Connection,
  {b92f75f5-583d-47f4-94e1-1671524820dd}, !- Handle
  {b290916f-683c-4f01-ad8b-f7b4fb3a39c9}, !- Name
  {5bd1098e-7314-4098-b42b-27c1d1c8821b}, !- Source Object
  11,                                     !- Outlet Port
  {86eb2ed1-f9fa-4c37-a2d2-63af6a629fd5}, !- Target Object
  2;                                      !- Inlet Port

OS:PortList,
  {a681fea8-5dfd-4cd4-8f33-315472a151c5}, !- Handle
  {2442fcc0-46f1-4a66-bf9b-cc0cab8d799d}, !- Name
  {5bd1098e-7314-4098-b42b-27c1d1c8821b}; !- HVAC Component

OS:PortList,
  {c0d73a3d-e67a-4c83-aff2-d4ccbedc1224}, !- Handle
  {c928444d-2402-4b4d-8e2e-4fcf1505597f}, !- Name
  {5bd1098e-7314-4098-b42b-27c1d1c8821b}; !- HVAC Component

OS:Sizing:Zone,
  {246ad100-0d54-4565-97b3-da08f1bb35cf}, !- Handle
  {5bd1098e-7314-4098-b42b-27c1d1c8821b}, !- Zone or ZoneList Name
  SupplyAirTemperature,                   !- Zone Cooling Design Supply Air Temperature Input Method
  14,                                     !- Zone Cooling Design Supply Air Temperature {C}
  11.11,                                  !- Zone Cooling Design Supply Air Temperature Difference {deltaC}
  SupplyAirTemperature,                   !- Zone Heating Design Supply Air Temperature Input Method
  40,                                     !- Zone Heating Design Supply Air Temperature {C}
  11.11,                                  !- Zone Heating Design Supply Air Temperature Difference {deltaC}
  0.0085,                                 !- Zone Cooling Design Supply Air Humidity Ratio {kg-H2O/kg-air}
  0.008,                                  !- Zone Heating Design Supply Air Humidity Ratio {kg-H2O/kg-air}
  ,                                       !- Zone Heating Sizing Factor
  ,                                       !- Zone Cooling Sizing Factor
  DesignDay,                              !- Cooling Design Air Flow Method
  ,                                       !- Cooling Design Air Flow Rate {m3/s}
  ,                                       !- Cooling Minimum Air Flow per Zone Floor Area {m3/s-m2}
  ,                                       !- Cooling Minimum Air Flow {m3/s}
  ,                                       !- Cooling Minimum Air Flow Fraction
  DesignDay,                              !- Heating Design Air Flow Method
  ,                                       !- Heating Design Air Flow Rate {m3/s}
  ,                                       !- Heating Maximum Air Flow per Zone Floor Area {m3/s-m2}
  ,                                       !- Heating Maximum Air Flow {m3/s}
  ,                                       !- Heating Maximum Air Flow Fraction
  ,                                       !- Design Zone Air Distribution Effectiveness in Cooling Mode
  ,                                       !- Design Zone Air Distribution Effectiveness in Heating Mode
  No,                                     !- Account for Dedicated Outdoor Air System
  NeutralSupplyAir,                       !- Dedicated Outdoor Air System Control Strategy
  autosize,                               !- Dedicated Outdoor Air Low Setpoint Temperature for Design {C}
  autosize;                               !- Dedicated Outdoor Air High Setpoint Temperature for Design {C}

OS:ZoneHVAC:EquipmentList,
  {58144cf9-1954-4ab3-b536-8ac39deec130}, !- Handle
  Zone HVAC Equipment List 1,             !- Name
  {5bd1098e-7314-4098-b42b-27c1d1c8821b}; !- Thermal Zone

OS:Space,
  {c0e32376-26ec-45df-981f-e0e60f7b36bc}, !- Handle
  living space,                           !- Name
  ,                                       !- Space Type Name
  ,                                       !- Default Construction Set Name
  ,                                       !- Default Schedule Set Name
  -0,                                     !- Direction of Relative North {deg}
  0,                                      !- X Origin {m}
  0,                                      !- Y Origin {m}
  0,                                      !- Z Origin {m}
  ,                                       !- Building Story Name
  {5bd1098e-7314-4098-b42b-27c1d1c8821b}, !- Thermal Zone Name
  ,                                       !- Part of Total Floor Area
  ,                                       !- Design Specification Outdoor Air Object Name
  {0f51c420-d459-43a0-be2f-b2211647d8c9}; !- Building Unit Name

OS:Surface,
  {a20adbb7-90e2-4480-931e-46611563ef6c}, !- Handle
  Surface 1,                              !- Name
  Floor,                                  !- Surface Type
  ,                                       !- Construction Name
  {c0e32376-26ec-45df-981f-e0e60f7b36bc}, !- Space Name
  Ground,                                 !- Outside Boundary Condition
  ,                                       !- Outside Boundary Condition Object
  NoSun,                                  !- Sun Exposure
  NoWind,                                 !- Wind Exposure
  ,                                       !- View Factor to Ground
  ,                                       !- Number of Vertices
  0, 0, 0,                                !- X,Y,Z Vertex 1 {m}
  0, 6.81553519541936, 0,                 !- X,Y,Z Vertex 2 {m}
  13.6310703908387, 6.81553519541936, 0,  !- X,Y,Z Vertex 3 {m}
  13.6310703908387, 0, 0;                 !- X,Y,Z Vertex 4 {m}

OS:Surface,
  {2ae07304-2e19-4aee-a92c-2f38b7817391}, !- Handle
  Surface 2,                              !- Name
  Wall,                                   !- Surface Type
  {45284751-dd90-4e6b-a473-2042d3905f9a}, !- Construction Name
  {c0e32376-26ec-45df-981f-e0e60f7b36bc}, !- Space Name
  Outdoors,                               !- Outside Boundary Condition
  ,                                       !- Outside Boundary Condition Object
  SunExposed,                             !- Sun Exposure
  WindExposed,                            !- Wind Exposure
  ,                                       !- View Factor to Ground
  ,                                       !- Number of Vertices
  0, 6.81553519541936, 2.4384,            !- X,Y,Z Vertex 1 {m}
  0, 6.81553519541936, 0,                 !- X,Y,Z Vertex 2 {m}
  0, 0, 0,                                !- X,Y,Z Vertex 3 {m}
  0, 0, 2.4384;                           !- X,Y,Z Vertex 4 {m}

OS:Surface,
  {8b16e481-b358-4552-986a-7c9ce7f8e84d}, !- Handle
  Surface 3,                              !- Name
  Wall,                                   !- Surface Type
  {45284751-dd90-4e6b-a473-2042d3905f9a}, !- Construction Name
  {c0e32376-26ec-45df-981f-e0e60f7b36bc}, !- Space Name
  Outdoors,                               !- Outside Boundary Condition
  ,                                       !- Outside Boundary Condition Object
  SunExposed,                             !- Sun Exposure
  WindExposed,                            !- Wind Exposure
  ,                                       !- View Factor to Ground
  ,                                       !- Number of Vertices
  13.6310703908387, 6.81553519541936, 2.4384, !- X,Y,Z Vertex 1 {m}
  13.6310703908387, 6.81553519541936, 0,  !- X,Y,Z Vertex 2 {m}
  0, 6.81553519541936, 0,                 !- X,Y,Z Vertex 3 {m}
  0, 6.81553519541936, 2.4384;            !- X,Y,Z Vertex 4 {m}

OS:Surface,
  {15ea9401-baf3-4989-8053-5c7a7a8f5e84}, !- Handle
  Surface 4,                              !- Name
  Wall,                                   !- Surface Type
  {45284751-dd90-4e6b-a473-2042d3905f9a}, !- Construction Name
  {c0e32376-26ec-45df-981f-e0e60f7b36bc}, !- Space Name
  Outdoors,                               !- Outside Boundary Condition
  ,                                       !- Outside Boundary Condition Object
  SunExposed,                             !- Sun Exposure
  WindExposed,                            !- Wind Exposure
  ,                                       !- View Factor to Ground
  ,                                       !- Number of Vertices
  13.6310703908387, 0, 2.4384,            !- X,Y,Z Vertex 1 {m}
  13.6310703908387, 0, 0,                 !- X,Y,Z Vertex 2 {m}
  13.6310703908387, 6.81553519541936, 0,  !- X,Y,Z Vertex 3 {m}
  13.6310703908387, 6.81553519541936, 2.4384; !- X,Y,Z Vertex 4 {m}

OS:Surface,
  {8a05aaa1-fda9-420b-a31f-11196a4ef346}, !- Handle
  Surface 5,                              !- Name
  Wall,                                   !- Surface Type
  {45284751-dd90-4e6b-a473-2042d3905f9a}, !- Construction Name
  {c0e32376-26ec-45df-981f-e0e60f7b36bc}, !- Space Name
  Outdoors,                               !- Outside Boundary Condition
  ,                                       !- Outside Boundary Condition Object
  SunExposed,                             !- Sun Exposure
  WindExposed,                            !- Wind Exposure
  ,                                       !- View Factor to Ground
  ,                                       !- Number of Vertices
  0, 0, 2.4384,                           !- X,Y,Z Vertex 1 {m}
  0, 0, 0,                                !- X,Y,Z Vertex 2 {m}
  13.6310703908387, 0, 0,                 !- X,Y,Z Vertex 3 {m}
  13.6310703908387, 0, 2.4384;            !- X,Y,Z Vertex 4 {m}

OS:Surface,
  {fba0a9e0-c4a0-4065-b618-db621df08297}, !- Handle
  Surface 6,                              !- Name
  RoofCeiling,                            !- Surface Type
  {e0f5b3c0-919a-4d5d-84ae-6fb59c0f0793}, !- Construction Name
  {c0e32376-26ec-45df-981f-e0e60f7b36bc}, !- Space Name
  Surface,                                !- Outside Boundary Condition
  {22e04769-1dd2-41ec-b8e6-03728993381f}, !- Outside Boundary Condition Object
  NoSun,                                  !- Sun Exposure
  NoWind,                                 !- Wind Exposure
  ,                                       !- View Factor to Ground
  ,                                       !- Number of Vertices
  13.6310703908387, 0, 2.4384,            !- X,Y,Z Vertex 1 {m}
  13.6310703908387, 6.81553519541936, 2.4384, !- X,Y,Z Vertex 2 {m}
  0, 6.81553519541936, 2.4384,            !- X,Y,Z Vertex 3 {m}
  0, 0, 2.4384;                           !- X,Y,Z Vertex 4 {m}

OS:Space,
  {b9002adc-4114-4567-83d8-56ac278e521c}, !- Handle
  living space|story 2,                   !- Name
  ,                                       !- Space Type Name
  ,                                       !- Default Construction Set Name
  ,                                       !- Default Schedule Set Name
  -0,                                     !- Direction of Relative North {deg}
  0,                                      !- X Origin {m}
  0,                                      !- Y Origin {m}
  2.4384,                                 !- Z Origin {m}
  ,                                       !- Building Story Name
  {5bd1098e-7314-4098-b42b-27c1d1c8821b}, !- Thermal Zone Name
  ,                                       !- Part of Total Floor Area
  ,                                       !- Design Specification Outdoor Air Object Name
  {0f51c420-d459-43a0-be2f-b2211647d8c9}; !- Building Unit Name

OS:Surface,
  {22e04769-1dd2-41ec-b8e6-03728993381f}, !- Handle
  Surface 7,                              !- Name
  Floor,                                  !- Surface Type
  {e0f5b3c0-919a-4d5d-84ae-6fb59c0f0793}, !- Construction Name
  {b9002adc-4114-4567-83d8-56ac278e521c}, !- Space Name
  Surface,                                !- Outside Boundary Condition
  {fba0a9e0-c4a0-4065-b618-db621df08297}, !- Outside Boundary Condition Object
  NoSun,                                  !- Sun Exposure
  NoWind,                                 !- Wind Exposure
  ,                                       !- View Factor to Ground
  ,                                       !- Number of Vertices
  0, 0, 0,                                !- X,Y,Z Vertex 1 {m}
  0, 6.81553519541936, 0,                 !- X,Y,Z Vertex 2 {m}
  13.6310703908387, 6.81553519541936, 0,  !- X,Y,Z Vertex 3 {m}
  13.6310703908387, 0, 0;                 !- X,Y,Z Vertex 4 {m}

OS:Surface,
  {d00b108d-d9f3-4615-87e4-1fa68acada1b}, !- Handle
  Surface 8,                              !- Name
  Wall,                                   !- Surface Type
  {45284751-dd90-4e6b-a473-2042d3905f9a}, !- Construction Name
  {b9002adc-4114-4567-83d8-56ac278e521c}, !- Space Name
  Outdoors,                               !- Outside Boundary Condition
  ,                                       !- Outside Boundary Condition Object
  SunExposed,                             !- Sun Exposure
  WindExposed,                            !- Wind Exposure
  ,                                       !- View Factor to Ground
  ,                                       !- Number of Vertices
  0, 6.81553519541936, 2.4384,            !- X,Y,Z Vertex 1 {m}
  0, 6.81553519541936, 0,                 !- X,Y,Z Vertex 2 {m}
  0, 0, 0,                                !- X,Y,Z Vertex 3 {m}
  0, 0, 2.4384;                           !- X,Y,Z Vertex 4 {m}

OS:Surface,
  {eb763786-589b-4568-9c82-ac15c1a02d45}, !- Handle
  Surface 9,                              !- Name
  Wall,                                   !- Surface Type
  {45284751-dd90-4e6b-a473-2042d3905f9a}, !- Construction Name
  {b9002adc-4114-4567-83d8-56ac278e521c}, !- Space Name
  Outdoors,                               !- Outside Boundary Condition
  ,                                       !- Outside Boundary Condition Object
  SunExposed,                             !- Sun Exposure
  WindExposed,                            !- Wind Exposure
  ,                                       !- View Factor to Ground
  ,                                       !- Number of Vertices
  13.6310703908387, 6.81553519541936, 2.4384, !- X,Y,Z Vertex 1 {m}
  13.6310703908387, 6.81553519541936, 0,  !- X,Y,Z Vertex 2 {m}
  0, 6.81553519541936, 0,                 !- X,Y,Z Vertex 3 {m}
  0, 6.81553519541936, 2.4384;            !- X,Y,Z Vertex 4 {m}

OS:Surface,
  {0308e48e-2a9a-4438-9ff3-4d7f68d7e9d5}, !- Handle
  Surface 10,                             !- Name
  Wall,                                   !- Surface Type
  {45284751-dd90-4e6b-a473-2042d3905f9a}, !- Construction Name
  {b9002adc-4114-4567-83d8-56ac278e521c}, !- Space Name
  Outdoors,                               !- Outside Boundary Condition
  ,                                       !- Outside Boundary Condition Object
  SunExposed,                             !- Sun Exposure
  WindExposed,                            !- Wind Exposure
  ,                                       !- View Factor to Ground
  ,                                       !- Number of Vertices
  13.6310703908387, 0, 2.4384,            !- X,Y,Z Vertex 1 {m}
  13.6310703908387, 0, 0,                 !- X,Y,Z Vertex 2 {m}
  13.6310703908387, 6.81553519541936, 0,  !- X,Y,Z Vertex 3 {m}
  13.6310703908387, 6.81553519541936, 2.4384; !- X,Y,Z Vertex 4 {m}

OS:Surface,
  {9c545da7-2691-4d7f-9637-6af1645cc725}, !- Handle
  Surface 11,                             !- Name
  Wall,                                   !- Surface Type
  {45284751-dd90-4e6b-a473-2042d3905f9a}, !- Construction Name
  {b9002adc-4114-4567-83d8-56ac278e521c}, !- Space Name
  Outdoors,                               !- Outside Boundary Condition
  ,                                       !- Outside Boundary Condition Object
  SunExposed,                             !- Sun Exposure
  WindExposed,                            !- Wind Exposure
  ,                                       !- View Factor to Ground
  ,                                       !- Number of Vertices
  0, 0, 2.4384,                           !- X,Y,Z Vertex 1 {m}
  0, 0, 0,                                !- X,Y,Z Vertex 2 {m}
  13.6310703908387, 0, 0,                 !- X,Y,Z Vertex 3 {m}
  13.6310703908387, 0, 2.4384;            !- X,Y,Z Vertex 4 {m}

OS:Surface,
  {115e896b-694c-4a4c-8f3f-c77bf09b3abc}, !- Handle
  Surface 12,                             !- Name
  RoofCeiling,                            !- Surface Type
  {8eb7082c-f0e5-4eaa-b60e-0df1f7924bbf}, !- Construction Name
  {b9002adc-4114-4567-83d8-56ac278e521c}, !- Space Name
  Surface,                                !- Outside Boundary Condition
  {443ea79b-e278-41fa-b534-5e7aab649a02}, !- Outside Boundary Condition Object
  NoSun,                                  !- Sun Exposure
  NoWind,                                 !- Wind Exposure
  ,                                       !- View Factor to Ground
  ,                                       !- Number of Vertices
  13.6310703908387, 0, 2.4384,            !- X,Y,Z Vertex 1 {m}
  13.6310703908387, 6.81553519541936, 2.4384, !- X,Y,Z Vertex 2 {m}
  0, 6.81553519541936, 2.4384,            !- X,Y,Z Vertex 3 {m}
  0, 0, 2.4384;                           !- X,Y,Z Vertex 4 {m}

OS:Surface,
  {443ea79b-e278-41fa-b534-5e7aab649a02}, !- Handle
  Surface 13,                             !- Name
  Floor,                                  !- Surface Type
  {4ed1dd02-353d-4316-abc1-7ae15fc09d97}, !- Construction Name
  {f6def948-b8fb-4e8e-a27e-3275fccb2e62}, !- Space Name
  Surface,                                !- Outside Boundary Condition
  {115e896b-694c-4a4c-8f3f-c77bf09b3abc}, !- Outside Boundary Condition Object
  NoSun,                                  !- Sun Exposure
  NoWind,                                 !- Wind Exposure
  ,                                       !- View Factor to Ground
  ,                                       !- Number of Vertices
  0, 6.81553519541936, 0,                 !- X,Y,Z Vertex 1 {m}
  13.6310703908387, 6.81553519541936, 0,  !- X,Y,Z Vertex 2 {m}
  13.6310703908387, 0, 0,                 !- X,Y,Z Vertex 3 {m}
  0, 0, 0;                                !- X,Y,Z Vertex 4 {m}

OS:Surface,
  {f1814135-cd62-46ee-8fed-741787aa9bd1}, !- Handle
  Surface 14,                             !- Name
  RoofCeiling,                            !- Surface Type
  {2916e103-2148-425b-abba-a09ef662fbb5}, !- Construction Name
  {f6def948-b8fb-4e8e-a27e-3275fccb2e62}, !- Space Name
  Outdoors,                               !- Outside Boundary Condition
  ,                                       !- Outside Boundary Condition Object
  SunExposed,                             !- Sun Exposure
  WindExposed,                            !- Wind Exposure
  ,                                       !- View Factor to Ground
  ,                                       !- Number of Vertices
  13.6310703908387, 3.40776759770968, 1.70388379885484, !- X,Y,Z Vertex 1 {m}
  0, 3.40776759770968, 1.70388379885484,  !- X,Y,Z Vertex 2 {m}
  0, 0, 0,                                !- X,Y,Z Vertex 3 {m}
  13.6310703908387, 0, 0;                 !- X,Y,Z Vertex 4 {m}

OS:Surface,
  {afd3b79a-9c9d-4c2d-9342-ef66876b4985}, !- Handle
  Surface 15,                             !- Name
  RoofCeiling,                            !- Surface Type
  {2916e103-2148-425b-abba-a09ef662fbb5}, !- Construction Name
  {f6def948-b8fb-4e8e-a27e-3275fccb2e62}, !- Space Name
  Outdoors,                               !- Outside Boundary Condition
  ,                                       !- Outside Boundary Condition Object
  SunExposed,                             !- Sun Exposure
  WindExposed,                            !- Wind Exposure
  ,                                       !- View Factor to Ground
  ,                                       !- Number of Vertices
  0, 3.40776759770968, 1.70388379885484,  !- X,Y,Z Vertex 1 {m}
  13.6310703908387, 3.40776759770968, 1.70388379885484, !- X,Y,Z Vertex 2 {m}
  13.6310703908387, 6.81553519541936, 0,  !- X,Y,Z Vertex 3 {m}
  0, 6.81553519541936, 0;                 !- X,Y,Z Vertex 4 {m}

OS:Surface,
  {c3515322-9917-4fd8-bbbd-c84de22a8ed7}, !- Handle
  Surface 16,                             !- Name
  Wall,                                   !- Surface Type
  {a46514b9-3704-4894-b0dd-3c00d4f46927}, !- Construction Name
  {f6def948-b8fb-4e8e-a27e-3275fccb2e62}, !- Space Name
  Outdoors,                               !- Outside Boundary Condition
  ,                                       !- Outside Boundary Condition Object
  SunExposed,                             !- Sun Exposure
  WindExposed,                            !- Wind Exposure
  ,                                       !- View Factor to Ground
  ,                                       !- Number of Vertices
  0, 3.40776759770968, 1.70388379885484,  !- X,Y,Z Vertex 1 {m}
  0, 6.81553519541936, 0,                 !- X,Y,Z Vertex 2 {m}
  0, 0, 0;                                !- X,Y,Z Vertex 3 {m}

OS:Surface,
  {7c2a5ad8-fd08-4d59-8ecb-d04283c45a11}, !- Handle
  Surface 17,                             !- Name
  Wall,                                   !- Surface Type
  {a46514b9-3704-4894-b0dd-3c00d4f46927}, !- Construction Name
  {f6def948-b8fb-4e8e-a27e-3275fccb2e62}, !- Space Name
  Outdoors,                               !- Outside Boundary Condition
  ,                                       !- Outside Boundary Condition Object
  SunExposed,                             !- Sun Exposure
  WindExposed,                            !- Wind Exposure
  ,                                       !- View Factor to Ground
  ,                                       !- Number of Vertices
  13.6310703908387, 3.40776759770968, 1.70388379885484, !- X,Y,Z Vertex 1 {m}
  13.6310703908387, 0, 0,                 !- X,Y,Z Vertex 2 {m}
  13.6310703908387, 6.81553519541936, 0;  !- X,Y,Z Vertex 3 {m}

OS:Space,
  {f6def948-b8fb-4e8e-a27e-3275fccb2e62}, !- Handle
  unfinished attic space,                 !- Name
  ,                                       !- Space Type Name
  ,                                       !- Default Construction Set Name
  ,                                       !- Default Schedule Set Name
  -0,                                     !- Direction of Relative North {deg}
  0,                                      !- X Origin {m}
  0,                                      !- Y Origin {m}
  4.8768,                                 !- Z Origin {m}
  ,                                       !- Building Story Name
  {b3991dfd-b567-4d8e-a58c-ad14b7654601}, !- Thermal Zone Name
  ,                                       !- Part of Total Floor Area
  ,                                       !- Design Specification Outdoor Air Object Name
  {0f51c420-d459-43a0-be2f-b2211647d8c9}; !- Building Unit Name

OS:ThermalZone,
  {b3991dfd-b567-4d8e-a58c-ad14b7654601}, !- Handle
  unfinished attic zone,                  !- Name
  ,                                       !- Multiplier
  ,                                       !- Ceiling Height {m}
  ,                                       !- Volume {m3}
  ,                                       !- Floor Area {m2}
  ,                                       !- Zone Inside Convection Algorithm
  ,                                       !- Zone Outside Convection Algorithm
  ,                                       !- Zone Conditioning Equipment List Name
  {d12a4bf9-41fa-4338-9986-1f0d4334495e}, !- Zone Air Inlet Port List
  {c7b64b19-b247-4c54-a8b4-6444c0c8bde6}, !- Zone Air Exhaust Port List
  {7d81f2c5-2e65-407e-8491-b0c11d4082e5}, !- Zone Air Node Name
  ,                                       !- Zone Return Air Node Name
  ,                                       !- Primary Daylighting Control Name
  ,                                       !- Fraction of Zone Controlled by Primary Daylighting Control
  ,                                       !- Secondary Daylighting Control Name
  ,                                       !- Fraction of Zone Controlled by Secondary Daylighting Control
  ,                                       !- Illuminance Map Name
  ,                                       !- Group Rendering Name
  ,                                       !- Thermostat Name
  No;                                     !- Use Ideal Air Loads

OS:Node,
  {cfff1c4c-1909-40d0-8fcf-d9504d311de5}, !- Handle
  Node 2,                                 !- Name
  {7d81f2c5-2e65-407e-8491-b0c11d4082e5}, !- Inlet Port
  ;                                       !- Outlet Port

OS:Connection,
  {7d81f2c5-2e65-407e-8491-b0c11d4082e5}, !- Handle
  {7eb860d4-07a6-4f6f-bcce-d240b350a81c}, !- Name
  {b3991dfd-b567-4d8e-a58c-ad14b7654601}, !- Source Object
  11,                                     !- Outlet Port
  {cfff1c4c-1909-40d0-8fcf-d9504d311de5}, !- Target Object
  2;                                      !- Inlet Port

OS:PortList,
  {d12a4bf9-41fa-4338-9986-1f0d4334495e}, !- Handle