!- NOTE: Auto-generated from /test/osw_files/SFD_2000sqft_2story_SL_UA_AllLayersButWallThermalMass_CeilingIns.osw

OS:Version,
  {ee98762e-c5da-4173-9cb8-711e9f3fdb37}, !- Handle
  2.4.0;                                  !- Version Identifier

OS:Building,
  {bf305633-c5a1-4881-9edf-ca5e1a8e1274}, !- Handle
  Building,                               !- Name
  ,                                       !- Building Sector Type
  ,                                       !- North Axis {deg}
  ,                                       !- Nominal Floor to Floor Height {m}
  ,                                       !- Space Type Name
  ,                                       !- Default Construction Set Name
  ,                                       !- Default Schedule Set Name
  2,                                      !- Standards Number of Stories
  2,                                      !- Standards Number of Above Ground Stories
  singlefamilydetached,                   !- Standards Building Type
  1;                                      !- Standards Number of Living Units

OS:YearDescription,
  {513d8dda-86cb-442a-b01c-1f7f0e0ac70e}; !- Handle

OS:SimulationControl,
  {2c487a4c-bac9-4ac5-b669-1e49d9da7c2b}, !- Handle
  ,                                       !- Do Zone Sizing Calculation
  ,                                       !- Do System Sizing Calculation
  ,                                       !- Do Plant Sizing Calculation
  No,                                     !- Run Simulation for Sizing Periods
  ;                                       !- Run Simulation for Weather File Run Periods

OS:Timestep,
  {4ebc9f1e-4707-402e-9844-67eb1ffbd522}, !- Handle
  6;                                      !- Number of Timesteps per Hour

OS:RunPeriod,
  {28df894d-6af9-4fb8-8f56-df1753344aa3}, !- Handle
  Run Period,                             !- Name
  1,                                      !- Begin Month
  1,                                      !- Begin Day of Month
  12,                                     !- End Month
  31,                                     !- End Day of Month
  ,                                       !- Use Weather File Holidays and Special Days
  ,                                       !- Use Weather File Daylight Saving Period
  ,                                       !- Apply Weekend Holiday Rule
  ,                                       !- Use Weather File Rain Indicators
  ,                                       !- Use Weather File Snow Indicators
  ;                                       !- Number of Times Runperiod to be Repeated

OS:Sizing:Parameters,
  {dde5af6f-7923-4600-a28a-7556673a0266}, !- Handle
  1.0,                                    !- Heating Sizing Factor
  1.0;                                    !- Cooling Sizing Factor

OS:ShadowCalculation,
  {ca758bea-4416-4626-9bba-3d8795c79bd6}, !- Handle
  20,                                     !- Calculation Frequency
  200;                                    !- Maximum Figures in Shadow Overlap Calculations

OS:SurfaceConvectionAlgorithm:Inside,
  {aaabfc36-718a-4ab0-b622-f186ebb45230}, !- Handle
  TARP;                                   !- Algorithm

OS:SurfaceConvectionAlgorithm:Outside,
  {9a0a9f6f-4bbd-4b12-a121-9492a1fcd7d6}, !- Handle
  DOE-2;                                  !- Algorithm

OS:HeatBalanceAlgorithm,
  {9d93e563-e1e0-46d7-9e39-d1c8aceb7212}, !- Handle
  ConductionTransferFunction,             !- Algorithm
  200;                                    !- Surface Temperature Upper Limit {C}

OS:ZoneCapacitanceMultiplier:ResearchSpecial,
  {6bfced16-b16f-47f6-8223-f7e267d75d19}, !- Handle
  ,                                       !- Temperature Capacity Multiplier
  15,                                     !- Humidity Capacity Multiplier
  ;                                       !- Carbon Dioxide Capacity Multiplier

OS:ThermalZone,
  {82243c31-b390-4032-94a1-255d5e70f401}, !- Handle
  living zone,                            !- Name
  ,                                       !- Multiplier
  ,                                       !- Ceiling Height {m}
  ,                                       !- Volume {m3}
  ,                                       !- Floor Area {m2}
  ,                                       !- Zone Inside Convection Algorithm
  ,                                       !- Zone Outside Convection Algorithm
  ,                                       !- Zone Conditioning Equipment List Name
  {302f021e-d2a2-44c4-a456-6ebc13c24cef}, !- Zone Air Inlet Port List
  {73d06d26-9540-4c74-9fcb-e8536f2439fe}, !- Zone Air Exhaust Port List
  {54f211e4-f376-4dfb-8c5d-294dba45b460}, !- Zone Air Node Name
  ,                                       !- Zone Return Air Node Name
  ,                                       !- Primary Daylighting Control Name
  ,                                       !- Fraction of Zone Controlled by Primary Daylighting Control
  ,                                       !- Secondary Daylighting Control Name
  ,                                       !- Fraction of Zone Controlled by Secondary Daylighting Control
  ,                                       !- Illuminance Map Name
  ,                                       !- Group Rendering Name
  ,                                       !- Thermostat Name
  No;                                     !- Use Ideal Air Loads

OS:Node,
  {007b4196-3619-4b0c-9678-3df76595b1d1}, !- Handle
  Node 1,                                 !- Name
  {54f211e4-f376-4dfb-8c5d-294dba45b460}, !- Inlet Port
  ;                                       !- Outlet Port

OS:Connection,
  {54f211e4-f376-4dfb-8c5d-294dba45b460}, !- Handle
  {108c44d8-0e56-4986-b679-eb84be1f41ae}, !- Name
  {82243c31-b390-4032-94a1-255d5e70f401}, !- Source Object
  11,                                     !- Outlet Port
  {007b4196-3619-4b0c-9678-3df76595b1d1}, !- Target Object
  2;                                      !- Inlet Port

OS:PortList,
  {302f021e-d2a2-44c4-a456-6ebc13c24cef}, !- Handle
  {33b9dc44-0df3-40cc-b859-44762142ba52}, !- Name
  {82243c31-b390-4032-94a1-255d5e70f401}; !- HVAC Component

OS:PortList,
  {73d06d26-9540-4c74-9fcb-e8536f2439fe}, !- Handle
  {8a474ea7-7669-4d55-bf85-8b84085f7258}, !- Name
  {82243c31-b390-4032-94a1-255d5e70f401}; !- HVAC Component

OS:Sizing:Zone,
  {aadcf2bf-2796-4bca-8238-ed70a4629395}, !- Handle
  {82243c31-b390-4032-94a1-255d5e70f401}, !- Zone or ZoneList Name
  SupplyAirTemperature,                   !- Zone Cooling Design Supply Air Temperature Input Method
  14,                                     !- Zone Cooling Design Supply Air Temperature {C}
  11.11,                                  !- Zone Cooling Design Supply Air Temperature Difference {deltaC}
  SupplyAirTemperature,                   !- Zone Heating Design Supply Air Temperature Input Method
  40,                                     !- Zone Heating Design Supply Air Temperature {C}
  11.11,                                  !- Zone Heating Design Supply Air Temperature Difference {deltaC}
  0.0085,                                 !- Zone Cooling Design Supply Air Humidity Ratio {kg-H2O/kg-air}
  0.008,                                  !- Zone Heating Design Supply Air Humidity Ratio {kg-H2O/kg-air}
  ,                                       !- Zone Heating Sizing Factor
  ,                                       !- Zone Cooling Sizing Factor
  DesignDay,                              !- Cooling Design Air Flow Method
  ,                                       !- Cooling Design Air Flow Rate {m3/s}
  ,                                       !- Cooling Minimum Air Flow per Zone Floor Area {m3/s-m2}
  ,                                       !- Cooling Minimum Air Flow {m3/s}
  ,                                       !- Cooling Minimum Air Flow Fraction
  DesignDay,                              !- Heating Design Air Flow Method
  ,                                       !- Heating Design Air Flow Rate {m3/s}
  ,                                       !- Heating Maximum Air Flow per Zone Floor Area {m3/s-m2}
  ,                                       !- Heating Maximum Air Flow {m3/s}
  ,                                       !- Heating Maximum Air Flow Fraction
  ,                                       !- Design Zone Air Distribution Effectiveness in Cooling Mode
  ,                                       !- Design Zone Air Distribution Effectiveness in Heating Mode
  No,                                     !- Account for Dedicated Outdoor Air System
  NeutralSupplyAir,                       !- Dedicated Outdoor Air System Control Strategy
  autosize,                               !- Dedicated Outdoor Air Low Setpoint Temperature for Design {C}
  autosize;                               !- Dedicated Outdoor Air High Setpoint Temperature for Design {C}

OS:ZoneHVAC:EquipmentList,
  {95426d16-7b98-48e2-a32e-2929eb2bdef4}, !- Handle
  Zone HVAC Equipment List 1,             !- Name
  {82243c31-b390-4032-94a1-255d5e70f401}; !- Thermal Zone

OS:Space,
  {bfd9ef03-88cd-4e72-9e6d-9dc322d32a49}, !- Handle
  living space,                           !- Name
  ,                                       !- Space Type Name
  ,                                       !- Default Construction Set Name
  ,                                       !- Default Schedule Set Name
  -0,                                     !- Direction of Relative North {deg}
  0,                                      !- X Origin {m}
  0,                                      !- Y Origin {m}
  0,                                      !- Z Origin {m}
  ,                                       !- Building Story Name
  {82243c31-b390-4032-94a1-255d5e70f401}, !- Thermal Zone Name
  ,                                       !- Part of Total Floor Area
  ,                                       !- Design Specification Outdoor Air Object Name
  {9d484480-2a63-4a72-bcaa-f2217f2a24bb}; !- Building Unit Name

OS:Surface,
  {9bcb6224-a2f1-4a79-bec8-8e773dead46b}, !- Handle
  Surface 1,                              !- Name
  Floor,                                  !- Surface Type
  ,                                       !- Construction Name
  {bfd9ef03-88cd-4e72-9e6d-9dc322d32a49}, !- Space Name
  Ground,                                 !- Outside Boundary Condition
  ,                                       !- Outside Boundary Condition Object
  NoSun,                                  !- Sun Exposure
  NoWind,                                 !- Wind Exposure
  ,                                       !- View Factor to Ground
  ,                                       !- Number of Vertices
  0, 0, 0,                                !- X,Y,Z Vertex 1 {m}
  0, 6.81553519541936, 0,                 !- X,Y,Z Vertex 2 {m}
  13.6310703908387, 6.81553519541936, 0,  !- X,Y,Z Vertex 3 {m}
  13.6310703908387, 0, 0;                 !- X,Y,Z Vertex 4 {m}

OS:Surface,
  {3a065f60-f642-4bf7-b65e-dafc7a8bba60}, !- Handle
  Surface 2,                              !- Name
  Wall,                                   !- Surface Type
  {b66fa22c-3bb1-4428-ab56-18716e2cff96}, !- Construction Name
  {bfd9ef03-88cd-4e72-9e6d-9dc322d32a49}, !- Space Name
  Outdoors,                               !- Outside Boundary Condition
  ,                                       !- Outside Boundary Condition Object
  SunExposed,                             !- Sun Exposure
  WindExposed,                            !- Wind Exposure
  ,                                       !- View Factor to Ground
  ,                                       !- Number of Vertices
  0, 6.81553519541936, 2.4384,            !- X,Y,Z Vertex 1 {m}
  0, 6.81553519541936, 0,                 !- X,Y,Z Vertex 2 {m}
  0, 0, 0,                                !- X,Y,Z Vertex 3 {m}
  0, 0, 2.4384;                           !- X,Y,Z Vertex 4 {m}

OS:Surface,
  {e951561b-5e4b-464e-91fe-962076691a92}, !- Handle
  Surface 3,                              !- Name
  Wall,                                   !- Surface Type
  {b66fa22c-3bb1-4428-ab56-18716e2cff96}, !- Construction Name
  {bfd9ef03-88cd-4e72-9e6d-9dc322d32a49}, !- Space Name
  Outdoors,                               !- Outside Boundary Condition
  ,                                       !- Outside Boundary Condition Object
  SunExposed,                             !- Sun Exposure
  WindExposed,                            !- Wind Exposure
  ,                                       !- View Factor to Ground
  ,                                       !- Number of Vertices
  13.6310703908387, 6.81553519541936, 2.4384, !- X,Y,Z Vertex 1 {m}
  13.6310703908387, 6.81553519541936, 0,  !- X,Y,Z Vertex 2 {m}
  0, 6.81553519541936, 0,                 !- X,Y,Z Vertex 3 {m}
  0, 6.81553519541936, 2.4384;            !- X,Y,Z Vertex 4 {m}

OS:Surface,
  {b09d1010-04f0-4456-8788-3057c2706ade}, !- Handle
  Surface 4,                              !- Name
  Wall,                                   !- Surface Type
  {b66fa22c-3bb1-4428-ab56-18716e2cff96}, !- Construction Name
  {bfd9ef03-88cd-4e72-9e6d-9dc322d32a49}, !- Space Name
  Outdoors,                               !- Outside Boundary Condition
  ,                                       !- Outside Boundary Condition Object
  SunExposed,                             !- Sun Exposure
  WindExposed,                            !- Wind Exposure
  ,                                       !- View Factor to Ground
  ,                                       !- Number of Vertices
  13.6310703908387, 0, 2.4384,            !- X,Y,Z Vertex 1 {m}
  13.6310703908387, 0, 0,                 !- X,Y,Z Vertex 2 {m}
  13.6310703908387, 6.81553519541936, 0,  !- X,Y,Z Vertex 3 {m}
  13.6310703908387, 6.81553519541936, 2.4384; !- X,Y,Z Vertex 4 {m}

OS:Surface,
  {092fdfbf-4381-4513-94d2-fcc61f539a5d}, !- Handle
  Surface 5,                              !- Name
  Wall,                                   !- Surface Type
  {b66fa22c-3bb1-4428-ab56-18716e2cff96}, !- Construction Name
  {bfd9ef03-88cd-4e72-9e6d-9dc322d32a49}, !- Space Name
  Outdoors,                               !- Outside Boundary Condition
  ,                                       !- Outside Boundary Condition Object
  SunExposed,                             !- Sun Exposure
  WindExposed,                            !- Wind Exposure
  ,                                       !- View Factor to Ground
  ,                                       !- Number of Vertices
  0, 0, 2.4384,                           !- X,Y,Z Vertex 1 {m}
  0, 0, 0,                                !- X,Y,Z Vertex 2 {m}
  13.6310703908387, 0, 0,                 !- X,Y,Z Vertex 3 {m}
  13.6310703908387, 0, 2.4384;            !- X,Y,Z Vertex 4 {m}

OS:Surface,
  {bd64db40-6048-4dff-ab50-c09aff9cd72c}, !- Handle
  Surface 6,                              !- Name
  RoofCeiling,                            !- Surface Type
  {a6b90200-1974-4623-b190-14e4a1131bdf}, !- Construction Name
  {bfd9ef03-88cd-4e72-9e6d-9dc322d32a49}, !- Space Name
  Surface,                                !- Outside Boundary Condition
  {0955364b-45f9-4841-a390-8e24b7bd0fea}, !- Outside Boundary Condition Object
  NoSun,                                  !- Sun Exposure
  NoWind,                                 !- Wind Exposure
  ,                                       !- View Factor to Ground
  ,                                       !- Number of Vertices
  13.6310703908387, 0, 2.4384,            !- X,Y,Z Vertex 1 {m}
  13.6310703908387, 6.81553519541936, 2.4384, !- X,Y,Z Vertex 2 {m}
  0, 6.81553519541936, 2.4384,            !- X,Y,Z Vertex 3 {m}
  0, 0, 2.4384;                           !- X,Y,Z Vertex 4 {m}

OS:Space,
  {d4647f90-00d7-40ba-88ee-36e5c21f64d0}, !- Handle
  living space|story 2,                   !- Name
  ,                                       !- Space Type Name
  ,                                       !- Default Construction Set Name
  ,                                       !- Default Schedule Set Name
  -0,                                     !- Direction of Relative North {deg}
  0,                                      !- X Origin {m}
  0,                                      !- Y Origin {m}
  2.4384,                                 !- Z Origin {m}
  ,                                       !- Building Story Name
  {82243c31-b390-4032-94a1-255d5e70f401}, !- Thermal Zone Name
  ,                                       !- Part of Total Floor Area
  ,                                       !- Design Specification Outdoor Air Object Name
  {9d484480-2a63-4a72-bcaa-f2217f2a24bb}; !- Building Unit Name

OS:Surface,
  {0955364b-45f9-4841-a390-8e24b7bd0fea}, !- Handle
  Surface 7,                              !- Name
  Floor,                                  !- Surface Type
  {a6b90200-1974-4623-b190-14e4a1131bdf}, !- Construction Name
  {d4647f90-00d7-40ba-88ee-36e5c21f64d0}, !- Space Name
  Surface,                                !- Outside Boundary Condition
  {bd64db40-6048-4dff-ab50-c09aff9cd72c}, !- Outside Boundary Condition Object
  NoSun,                                  !- Sun Exposure
  NoWind,                                 !- Wind Exposure
  ,                                       !- View Factor to Ground
  ,                                       !- Number of Vertices
  0, 0, 0,                                !- X,Y,Z Vertex 1 {m}
  0, 6.81553519541936, 0,                 !- X,Y,Z Vertex 2 {m}
  13.6310703908387, 6.81553519541936, 0,  !- X,Y,Z Vertex 3 {m}
  13.6310703908387, 0, 0;                 !- X,Y,Z Vertex 4 {m}

OS:Surface,
  {f5c38825-748d-467b-9e16-8e143751a030}, !- Handle
  Surface 8,                              !- Name
  Wall,                                   !- Surface Type
  {b66fa22c-3bb1-4428-ab56-18716e2cff96}, !- Construction Name
  {d4647f90-00d7-40ba-88ee-36e5c21f64d0}, !- Space Name
  Outdoors,                               !- Outside Boundary Condition
  ,                                       !- Outside Boundary Condition Object
  SunExposed,                             !- Sun Exposure
  WindExposed,                            !- Wind Exposure
  ,                                       !- View Factor to Ground
  ,                                       !- Number of Vertices
  0, 6.81553519541936, 2.4384,            !- X,Y,Z Vertex 1 {m}
  0, 6.81553519541936, 0,                 !- X,Y,Z Vertex 2 {m}
  0, 0, 0,                                !- X,Y,Z Vertex 3 {m}
  0, 0, 2.4384;                           !- X,Y,Z Vertex 4 {m}

OS:Surface,
  {2622bafc-e74a-44df-92e6-9294e861bebd}, !- Handle
  Surface 9,                              !- Name
  Wall,                                   !- Surface Type
  {b66fa22c-3bb1-4428-ab56-18716e2cff96}, !- Construction Name
  {d4647f90-00d7-40ba-88ee-36e5c21f64d0}, !- Space Name
  Outdoors,                               !- Outside Boundary Condition
  ,                                       !- Outside Boundary Condition Object
  SunExposed,                             !- Sun Exposure
  WindExposed,                            !- Wind Exposure
  ,                                       !- View Factor to Ground
  ,                                       !- Number of Vertices
  13.6310703908387, 6.81553519541936, 2.4384, !- X,Y,Z Vertex 1 {m}
  13.6310703908387, 6.81553519541936, 0,  !- X,Y,Z Vertex 2 {m}
  0, 6.81553519541936, 0,                 !- X,Y,Z Vertex 3 {m}
  0, 6.81553519541936, 2.4384;            !- X,Y,Z Vertex 4 {m}

OS:Surface,
  {2f8f489b-0553-4a88-a4a1-8cc83905e1a3}, !- Handle
  Surface 10,                             !- Name
  Wall,                                   !- Surface Type
  {b66fa22c-3bb1-4428-ab56-18716e2cff96}, !- Construction Name
  {d4647f90-00d7-40ba-88ee-36e5c21f64d0}, !- Space Name
  Outdoors,                               !- Outside Boundary Condition
  ,                                       !- Outside Boundary Condition Object
  SunExposed,                             !- Sun Exposure
  WindExposed,                            !- Wind Exposure
  ,                                       !- View Factor to Ground
  ,                                       !- Number of Vertices
  13.6310703908387, 0, 2.4384,            !- X,Y,Z Vertex 1 {m}
  13.6310703908387, 0, 0,                 !- X,Y,Z Vertex 2 {m}
  13.6310703908387, 6.81553519541936, 0,  !- X,Y,Z Vertex 3 {m}
  13.6310703908387, 6.81553519541936, 2.4384; !- X,Y,Z Vertex 4 {m}

OS:Surface,
  {542a708e-6235-4fe1-9ccd-b68158a1a536}, !- Handle
  Surface 11,                             !- Name
  Wall,                                   !- Surface Type
  {b66fa22c-3bb1-4428-ab56-18716e2cff96}, !- Construction Name
  {d4647f90-00d7-40ba-88ee-36e5c21f64d0}, !- Space Name
  Outdoors,                               !- Outside Boundary Condition
  ,                                       !- Outside Boundary Condition Object
  SunExposed,                             !- Sun Exposure
  WindExposed,                            !- Wind Exposure
  ,                                       !- View Factor to Ground
  ,                                       !- Number of Vertices
  0, 0, 2.4384,                           !- X,Y,Z Vertex 1 {m}
  0, 0, 0,                                !- X,Y,Z Vertex 2 {m}
  13.6310703908387, 0, 0,                 !- X,Y,Z Vertex 3 {m}
  13.6310703908387, 0, 2.4384;            !- X,Y,Z Vertex 4 {m}

OS:Surface,
  {94da168d-fbe9-4609-9d19-41a3f44a3e5d}, !- Handle
  Surface 12,                             !- Name
  RoofCeiling,                            !- Surface Type
  {b17003a6-5ad4-453a-9694-17d9767dc086}, !- Construction Name
  {d4647f90-00d7-40ba-88ee-36e5c21f64d0}, !- Space Name
  Surface,                                !- Outside Boundary Condition
  {b8b9e76c-edaa-4237-87ca-d3641a3d95f8}, !- Outside Boundary Condition Object
  NoSun,                                  !- Sun Exposure
  NoWind,                                 !- Wind Exposure
  ,                                       !- View Factor to Ground
  ,                                       !- Number of Vertices
  13.6310703908387, 0, 2.4384,            !- X,Y,Z Vertex 1 {m}
  13.6310703908387, 6.81553519541936, 2.4384, !- X,Y,Z Vertex 2 {m}
  0, 6.81553519541936, 2.4384,            !- X,Y,Z Vertex 3 {m}
  0, 0, 2.4384;                           !- X,Y,Z Vertex 4 {m}

OS:Surface,
  {b8b9e76c-edaa-4237-87ca-d3641a3d95f8}, !- Handle
  Surface 13,                             !- Name
  Floor,                                  !- Surface Type
  {eab601cc-a9f6-4a9b-9dd5-b83c6f08c8b7}, !- Construction Name
  {0e80a27e-072e-4178-be26-6fa48985d934}, !- Space Name
  Surface,                                !- Outside Boundary Condition
  {94da168d-fbe9-4609-9d19-41a3f44a3e5d}, !- Outside Boundary Condition Object
  NoSun,                                  !- Sun Exposure
  NoWind,                                 !- Wind Exposure
  ,                                       !- View Factor to Ground
  ,                                       !- Number of Vertices
  0, 6.81553519541936, 0,                 !- X,Y,Z Vertex 1 {m}
  13.6310703908387, 6.81553519541936, 0,  !- X,Y,Z Vertex 2 {m}
  13.6310703908387, 0, 0,                 !- X,Y,Z Vertex 3 {m}
  0, 0, 0;                                !- X,Y,Z Vertex 4 {m}

OS:Surface,
  {cecf0dc3-ff7d-4973-98ea-5ae6cfd2a85e}, !- Handle
  Surface 14,                             !- Name
  RoofCeiling,                            !- Surface Type
  {c83d0d0b-ba9a-4eca-90fa-a7299f79cab6}, !- Construction Name
  {0e80a27e-072e-4178-be26-6fa48985d934}, !- Space Name
  Outdoors,                               !- Outside Boundary Condition
  ,                                       !- Outside Boundary Condition Object
  SunExposed,                             !- Sun Exposure
  WindExposed,                            !- Wind Exposure
  ,                                       !- View Factor to Ground
  ,                                       !- Number of Vertices
  13.6310703908387, 3.40776759770968, 1.70388379885484, !- X,Y,Z Vertex 1 {m}
  0, 3.40776759770968, 1.70388379885484,  !- X,Y,Z Vertex 2 {m}
  0, 0, 0,                                !- X,Y,Z Vertex 3 {m}
  13.6310703908387, 0, 0;                 !- X,Y,Z Vertex 4 {m}

OS:Surface,
  {a393c06e-c4d1-466b-bc91-809d82bbc133}, !- Handle
  Surface 15,                             !- Name
  RoofCeiling,                            !- Surface Type
  {c83d0d0b-ba9a-4eca-90fa-a7299f79cab6}, !- Construction Name
  {0e80a27e-072e-4178-be26-6fa48985d934}, !- Space Name
  Outdoors,                               !- Outside Boundary Condition
  ,                                       !- Outside Boundary Condition Object
  SunExposed,                             !- Sun Exposure
  WindExposed,                            !- Wind Exposure
  ,                                       !- View Factor to Ground
  ,                                       !- Number of Vertices
  0, 3.40776759770968, 1.70388379885484,  !- X,Y,Z Vertex 1 {m}
  13.6310703908387, 3.40776759770968, 1.70388379885484, !- X,Y,Z Vertex 2 {m}
  13.6310703908387, 6.81553519541936, 0,  !- X,Y,Z Vertex 3 {m}
  0, 6.81553519541936, 0;                 !- X,Y,Z Vertex 4 {m}

OS:Surface,
  {2720e4e2-2d2f-4f00-a3da-3634c497e3e0}, !- Handle
  Surface 16,                             !- Name
  Wall,                                   !- Surface Type
  {9d3c9874-c06c-460a-9287-2d2771431318}, !- Construction Name
  {0e80a27e-072e-4178-be26-6fa48985d934}, !- Space Name
  Outdoors,                               !- Outside Boundary Condition
  ,                                       !- Outside Boundary Condition Object
  SunExposed,                             !- Sun Exposure
  WindExposed,                            !- Wind Exposure
  ,                                       !- View Factor to Ground
  ,                                       !- Number of Vertices
  0, 3.40776759770968, 1.70388379885484,  !- X,Y,Z Vertex 1 {m}
  0, 6.81553519541936, 0,                 !- X,Y,Z Vertex 2 {m}
  0, 0, 0;                                !- X,Y,Z Vertex 3 {m}

OS:Surface,
  {c977a3c3-18bd-497e-af4c-5f5d8e7c1c5e}, !- Handle
  Surface 17,                             !- Name
  Wall,                                   !- Surface Type
  {9d3c9874-c06c-460a-9287-2d2771431318}, !- Construction Name
  {0e80a27e-072e-4178-be26-6fa48985d934}, !- Space Name
  Outdoors,                               !- Outside Boundary Condition
  ,                                       !- Outside Boundary Condition Object
  SunExposed,                             !- Sun Exposure
  WindExposed,                            !- Wind Exposure
  ,                                       !- View Factor to Ground
  ,                                       !- Number of Vertices
  13.6310703908387, 3.40776759770968, 1.70388379885484, !- X,Y,Z Vertex 1 {m}
  13.6310703908387, 0, 0,                 !- X,Y,Z Vertex 2 {m}
  13.6310703908387, 6.81553519541936, 0;  !- X,Y,Z Vertex 3 {m}

OS:Space,
  {0e80a27e-072e-4178-be26-6fa48985d934}, !- Handle
  unfinished attic space,                 !- Name
  ,                                       !- Space Type Name
  ,                                       !- Default Construction Set Name
  ,                                       !- Default Schedule Set Name
  -0,                                     !- Direction of Relative North {deg}
  0,                                      !- X Origin {m}
  0,                                      !- Y Origin {m}
  4.8768,                                 !- Z Origin {m}
  ,                                       !- Building Story Name
  {8acf5594-9a4a-4926-9248-ccf6d4edc1e5}; !- Thermal Zone Name

OS:ThermalZone,
  {8acf5594-9a4a-4926-9248-ccf6d4edc1e5}, !- Handle
  unfinished attic zone,                  !- Name
  ,                                       !- Multiplier
  ,                                       !- Ceiling Height {m}
  ,                                       !- Volume {m3}
  ,                                       !- Floor Area {m2}
  ,                                       !- Zone Inside Convection Algorithm
  ,                                       !- Zone Outside Convection Algorithm
  ,                                       !- Zone Conditioning Equipment List Name
  {c972d65d-71a2-44f5-9a8e-475285f05012}, !- Zone Air Inlet Port List
  {8fe78f83-8f4d-4550-af6a-99d8e3db8b66}, !- Zone Air Exhaust Port List
  {84e1d8d3-3f2e-4ffc-b480-f8990cb3ff82}, !- Zone Air Node Name
  ,                                       !- Zone Return Air Node Name
  ,                                       !- Primary Daylighting Control Name
  ,                                       !- Fraction of Zone Controlled by Primary Daylighting Control
  ,                                       !- Secondary Daylighting Control Name
  ,                                       !- Fraction of Zone Controlled by Secondary Daylighting Control
  ,                                       !- Illuminance Map Name
  ,                                       !- Group Rendering Name
  ,                                       !- Thermostat Name
  No;                                     !- Use Ideal Air Loads

OS:Node,
  {ad980dd2-4491-42e0-93aa-ebfcc8c77652}, !- Handle
  Node 2,                                 !- Name
  {84e1d8d3-3f2e-4ffc-b480-f8990cb3ff82}, !- Inlet Port
  ;                                       !- Outlet Port

OS:Connection,
  {84e1d8d3-3f2e-4ffc-b480-f8990cb3ff82}, !- Handle
  {e7fefd53-10d8-46ff-b5ef-5b07fb66aab5}, !- Name
  {8acf5594-9a4a-4926-9248-ccf6d4edc1e5}, !- Source Object
  11,                                     !- Outlet Port
  {ad980dd2-4491-42e0-93aa-ebfcc8c77652}, !- Target Object
  2;                                      !- Inlet Port

OS:PortList,
  {c972d65d-71a2-44f5-9a8e-475285f05012}, !- Handle
  {0be7759c-833d-480b-8d64-20664171428d}, !- Name
  {8acf5594-9a4a-4926-9248-ccf6d4edc1e5}; !- HVAC Component

OS:PortList,
  {8fe78f83-8f4d-4550-af6a-99d8e3db8b66}, !- Handle
  {153d66b8-a78b-46c3-858a-7a282f239a46}, !- Name