!- NOTE: Auto-generated from /test/osw_files/SFD_2000sqft_2story_SL_UA_AllLayersButWallThermalMass_CeilingIns.osw

OS:Version,
  {c525b74a-60ff-414b-8f3b-2406407654f9}, !- Handle
  2.4.0;                                  !- Version Identifier

OS:Building,
  {bf305633-c5a1-4881-9edf-ca5e1a8e1274}, !- Handle
  Building,                               !- Name
  ,                                       !- Building Sector Type
  ,                                       !- North Axis {deg}
  ,                                       !- Nominal Floor to Floor Height {m}
  ,                                       !- Space Type Name
  ,                                       !- Default Construction Set Name
  ,                                       !- Default Schedule Set Name
  2,                                      !- Standards Number of Stories
  2,                                      !- Standards Number of Above Ground Stories
  singlefamilydetached,                   !- Standards Building Type
  1;                                      !- Standards Number of Living Units

OS:YearDescription,
  {513d8dda-86cb-442a-b01c-1f7f0e0ac70e}; !- Handle

OS:SimulationControl,
  {2c487a4c-bac9-4ac5-b669-1e49d9da7c2b}, !- Handle
  ,                                       !- Do Zone Sizing Calculation
  ,                                       !- Do System Sizing Calculation
  ,                                       !- Do Plant Sizing Calculation
  No,                                     !- Run Simulation for Sizing Periods
  ;                                       !- Run Simulation for Weather File Run Periods

OS:Timestep,
  {4ebc9f1e-4707-402e-9844-67eb1ffbd522}, !- Handle
  6;                                      !- Number of Timesteps per Hour

OS:RunPeriod,
  {28df894d-6af9-4fb8-8f56-df1753344aa3}, !- Handle
  Run Period,                             !- Name
  1,                                      !- Begin Month
  1,                                      !- Begin Day of Month
  12,                                     !- End Month
  31,                                     !- End Day of Month
  ,                                       !- Use Weather File Holidays and Special Days
  ,                                       !- Use Weather File Daylight Saving Period
  ,                                       !- Apply Weekend Holiday Rule
  ,                                       !- Use Weather File Rain Indicators
  ,                                       !- Use Weather File Snow Indicators
  ;                                       !- Number of Times Runperiod to be Repeated

OS:Sizing:Parameters,
  {dde5af6f-7923-4600-a28a-7556673a0266}, !- Handle
  1.0,                                    !- Heating Sizing Factor
  1.0;                                    !- Cooling Sizing Factor

OS:ShadowCalculation,
  {ca758bea-4416-4626-9bba-3d8795c79bd6}, !- Handle
  20,                                     !- Calculation Frequency
  200;                                    !- Maximum Figures in Shadow Overlap Calculations

OS:SurfaceConvectionAlgorithm:Inside,
  {aaabfc36-718a-4ab0-b622-f186ebb45230}, !- Handle
  TARP;                                   !- Algorithm

OS:SurfaceConvectionAlgorithm:Outside,
  {9a0a9f6f-4bbd-4b12-a121-9492a1fcd7d6}, !- Handle
  DOE-2;                                  !- Algorithm

OS:HeatBalanceAlgorithm,
  {9d93e563-e1e0-46d7-9e39-d1c8aceb7212}, !- Handle
  ConductionTransferFunction,             !- Algorithm
  200;                                    !- Surface Temperature Upper Limit {C}

OS:ZoneCapacitanceMultiplier:ResearchSpecial,
  {6bfced16-b16f-47f6-8223-f7e267d75d19}, !- Handle
  ,                                       !- Temperature Capacity Multiplier
  15,                                     !- Humidity Capacity Multiplier
  ;                                       !- Carbon Dioxide Capacity Multiplier

OS:ThermalZone,
  {e4ebeb4f-af93-4342-8137-49938290c0eb}, !- Handle
  living zone,                            !- Name
  ,                                       !- Multiplier
  ,                                       !- Ceiling Height {m}
  ,                                       !- Volume {m3}
  ,                                       !- Floor Area {m2}
  ,                                       !- Zone Inside Convection Algorithm
  ,                                       !- Zone Outside Convection Algorithm
  ,                                       !- Zone Conditioning Equipment List Name
  {915f4021-9712-4fcd-a7d3-4d5c0ee150c0}, !- Zone Air Inlet Port List
  {ac6ded36-9c3b-4b28-8429-e08fb2b9046d}, !- Zone Air Exhaust Port List
  {b24bae5e-10e7-4b61-bfc3-461703c8de63}, !- Zone Air Node Name
  ,                                       !- Zone Return Air Node Name
  ,                                       !- Primary Daylighting Control Name
  ,                                       !- Fraction of Zone Controlled by Primary Daylighting Control
  ,                                       !- Secondary Daylighting Control Name
  ,                                       !- Fraction of Zone Controlled by Secondary Daylighting Control
  ,                                       !- Illuminance Map Name
  ,                                       !- Group Rendering Name
  ,                                       !- Thermostat Name
  No;                                     !- Use Ideal Air Loads

OS:Node,
  {2c055ebe-2c76-40a5-a181-9d9eb9ac391d}, !- Handle
  Node 1,                                 !- Name
  {b24bae5e-10e7-4b61-bfc3-461703c8de63}, !- Inlet Port
  ;                                       !- Outlet Port

OS:Connection,
  {b24bae5e-10e7-4b61-bfc3-461703c8de63}, !- Handle
  {04548089-9c2d-4843-804d-777d15298e10}, !- Name
  {e4ebeb4f-af93-4342-8137-49938290c0eb}, !- Source Object
  11,                                     !- Outlet Port
  {2c055ebe-2c76-40a5-a181-9d9eb9ac391d}, !- Target Object
  2;                                      !- Inlet Port

OS:PortList,
  {915f4021-9712-4fcd-a7d3-4d5c0ee150c0}, !- Handle
  {5044cdd0-3625-4d4f-a070-2d72db702815}, !- Name
  {e4ebeb4f-af93-4342-8137-49938290c0eb}; !- HVAC Component

OS:PortList,
  {ac6ded36-9c3b-4b28-8429-e08fb2b9046d}, !- Handle
  {02b6e622-dea2-4e3c-a5be-16223479290a}, !- Name
  {e4ebeb4f-af93-4342-8137-49938290c0eb}; !- HVAC Component

OS:Sizing:Zone,
  {6cf75209-bfff-40e3-91dc-87cf8834358c}, !- Handle
  {e4ebeb4f-af93-4342-8137-49938290c0eb}, !- Zone or ZoneList Name
  SupplyAirTemperature,                   !- Zone Cooling Design Supply Air Temperature Input Method
  14,                                     !- Zone Cooling Design Supply Air Temperature {C}
  11.11,                                  !- Zone Cooling Design Supply Air Temperature Difference {deltaC}
  SupplyAirTemperature,                   !- Zone Heating Design Supply Air Temperature Input Method
  40,                                     !- Zone Heating Design Supply Air Temperature {C}
  11.11,                                  !- Zone Heating Design Supply Air Temperature Difference {deltaC}
  0.0085,                                 !- Zone Cooling Design Supply Air Humidity Ratio {kg-H2O/kg-air}
  0.008,                                  !- Zone Heating Design Supply Air Humidity Ratio {kg-H2O/kg-air}
  ,                                       !- Zone Heating Sizing Factor
  ,                                       !- Zone Cooling Sizing Factor
  DesignDay,                              !- Cooling Design Air Flow Method
  ,                                       !- Cooling Design Air Flow Rate {m3/s}
  ,                                       !- Cooling Minimum Air Flow per Zone Floor Area {m3/s-m2}
  ,                                       !- Cooling Minimum Air Flow {m3/s}
  ,                                       !- Cooling Minimum Air Flow Fraction
  DesignDay,                              !- Heating Design Air Flow Method
  ,                                       !- Heating Design Air Flow Rate {m3/s}
  ,                                       !- Heating Maximum Air Flow per Zone Floor Area {m3/s-m2}
  ,                                       !- Heating Maximum Air Flow {m3/s}
  ,                                       !- Heating Maximum Air Flow Fraction
  ,                                       !- Design Zone Air Distribution Effectiveness in Cooling Mode
  ,                                       !- Design Zone Air Distribution Effectiveness in Heating Mode
  No,                                     !- Account for Dedicated Outdoor Air System
  NeutralSupplyAir,                       !- Dedicated Outdoor Air System Control Strategy
  autosize,                               !- Dedicated Outdoor Air Low Setpoint Temperature for Design {C}
  autosize;                               !- Dedicated Outdoor Air High Setpoint Temperature for Design {C}

OS:ZoneHVAC:EquipmentList,
  {ce9d5189-1b2b-4de4-8df9-87f93f54070f}, !- Handle
  Zone HVAC Equipment List 1,             !- Name
  {e4ebeb4f-af93-4342-8137-49938290c0eb}; !- Thermal Zone

OS:Space,
  {a748a350-68ca-4891-b245-0e543200ac1b}, !- Handle
  living space,                           !- Name
  ,                                       !- Space Type Name
  ,                                       !- Default Construction Set Name
  ,                                       !- Default Schedule Set Name
  -0,                                     !- Direction of Relative North {deg}
  0,                                      !- X Origin {m}
  0,                                      !- Y Origin {m}
  0,                                      !- Z Origin {m}
  ,                                       !- Building Story Name
  {e4ebeb4f-af93-4342-8137-49938290c0eb}, !- Thermal Zone Name
  ,                                       !- Part of Total Floor Area
  ,                                       !- Design Specification Outdoor Air Object Name
  {42a76ad0-12a8-4ab7-9c3c-a5a20083c6a3}; !- Building Unit Name

OS:Surface,
  {9a9770a4-7fae-4445-9419-ed233b8cfb09}, !- Handle
  Surface 1,                              !- Name
  Floor,                                  !- Surface Type
  ,                                       !- Construction Name
  {a748a350-68ca-4891-b245-0e543200ac1b}, !- Space Name
  Ground,                                 !- Outside Boundary Condition
  ,                                       !- Outside Boundary Condition Object
  NoSun,                                  !- Sun Exposure
  NoWind,                                 !- Wind Exposure
  ,                                       !- View Factor to Ground
  ,                                       !- Number of Vertices
  0, 0, 0,                                !- X,Y,Z Vertex 1 {m}
  0, 6.81553519541936, 0,                 !- X,Y,Z Vertex 2 {m}
  13.6310703908387, 6.81553519541936, 0,  !- X,Y,Z Vertex 3 {m}
  13.6310703908387, 0, 0;                 !- X,Y,Z Vertex 4 {m}

OS:Surface,
  {70bc069c-855b-4def-b043-840f7c6b4e90}, !- Handle
  Surface 2,                              !- Name
  Wall,                                   !- Surface Type
  {81946ebb-625a-451f-a909-6b497bbdfabd}, !- Construction Name
  {a748a350-68ca-4891-b245-0e543200ac1b}, !- Space Name
  Outdoors,                               !- Outside Boundary Condition
  ,                                       !- Outside Boundary Condition Object
  SunExposed,                             !- Sun Exposure
  WindExposed,                            !- Wind Exposure
  ,                                       !- View Factor to Ground
  ,                                       !- Number of Vertices
  0, 6.81553519541936, 2.4384,            !- X,Y,Z Vertex 1 {m}
  0, 6.81553519541936, 0,                 !- X,Y,Z Vertex 2 {m}
  0, 0, 0,                                !- X,Y,Z Vertex 3 {m}
  0, 0, 2.4384;                           !- X,Y,Z Vertex 4 {m}

OS:Surface,
  {ac56d392-bade-4079-9213-bd6dddaa8e45}, !- Handle
  Surface 3,                              !- Name
  Wall,                                   !- Surface Type
  {81946ebb-625a-451f-a909-6b497bbdfabd}, !- Construction Name
  {a748a350-68ca-4891-b245-0e543200ac1b}, !- Space Name
  Outdoors,                               !- Outside Boundary Condition
  ,                                       !- Outside Boundary Condition Object
  SunExposed,                             !- Sun Exposure
  WindExposed,                            !- Wind Exposure
  ,                                       !- View Factor to Ground
  ,                                       !- Number of Vertices
  13.6310703908387, 6.81553519541936, 2.4384, !- X,Y,Z Vertex 1 {m}
  13.6310703908387, 6.81553519541936, 0,  !- X,Y,Z Vertex 2 {m}
  0, 6.81553519541936, 0,                 !- X,Y,Z Vertex 3 {m}
  0, 6.81553519541936, 2.4384;            !- X,Y,Z Vertex 4 {m}

OS:Surface,
  {af442396-9165-4970-b5ee-d45a8403cf7f}, !- Handle
  Surface 4,                              !- Name
  Wall,                                   !- Surface Type
  {81946ebb-625a-451f-a909-6b497bbdfabd}, !- Construction Name
  {a748a350-68ca-4891-b245-0e543200ac1b}, !- Space Name
  Outdoors,                               !- Outside Boundary Condition
  ,                                       !- Outside Boundary Condition Object
  SunExposed,                             !- Sun Exposure
  WindExposed,                            !- Wind Exposure
  ,                                       !- View Factor to Ground
  ,                                       !- Number of Vertices
  13.6310703908387, 0, 2.4384,            !- X,Y,Z Vertex 1 {m}
  13.6310703908387, 0, 0,                 !- X,Y,Z Vertex 2 {m}
  13.6310703908387, 6.81553519541936, 0,  !- X,Y,Z Vertex 3 {m}
  13.6310703908387, 6.81553519541936, 2.4384; !- X,Y,Z Vertex 4 {m}

OS:Surface,
  {51014d59-dbf9-49af-975a-2506d54eb1cc}, !- Handle
  Surface 5,                              !- Name
  Wall,                                   !- Surface Type
  {81946ebb-625a-451f-a909-6b497bbdfabd}, !- Construction Name
  {a748a350-68ca-4891-b245-0e543200ac1b}, !- Space Name
  Outdoors,                               !- Outside Boundary Condition
  ,                                       !- Outside Boundary Condition Object
  SunExposed,                             !- Sun Exposure
  WindExposed,                            !- Wind Exposure
  ,                                       !- View Factor to Ground
  ,                                       !- Number of Vertices
  0, 0, 2.4384,                           !- X,Y,Z Vertex 1 {m}
  0, 0, 0,                                !- X,Y,Z Vertex 2 {m}
  13.6310703908387, 0, 0,                 !- X,Y,Z Vertex 3 {m}
  13.6310703908387, 0, 2.4384;            !- X,Y,Z Vertex 4 {m}

OS:Surface,
  {3a27c5d1-042f-4d9f-91b3-a569861eb91f}, !- Handle
  Surface 6,                              !- Name
  RoofCeiling,                            !- Surface Type
  {6314ed47-1817-4366-9574-883babac7555}, !- Construction Name
  {a748a350-68ca-4891-b245-0e543200ac1b}, !- Space Name
  Surface,                                !- Outside Boundary Condition
  {e73f7323-9021-4f8b-97c8-dcadf6b3e406}, !- Outside Boundary Condition Object
  NoSun,                                  !- Sun Exposure
  NoWind,                                 !- Wind Exposure
  ,                                       !- View Factor to Ground
  ,                                       !- Number of Vertices
  13.6310703908387, 0, 2.4384,            !- X,Y,Z Vertex 1 {m}
  13.6310703908387, 6.81553519541936, 2.4384, !- X,Y,Z Vertex 2 {m}
  0, 6.81553519541936, 2.4384,            !- X,Y,Z Vertex 3 {m}
  0, 0, 2.4384;                           !- X,Y,Z Vertex 4 {m}

OS:Space,
  {463fe27d-4caa-408a-ba85-1bbc77606128}, !- Handle
  living space|story 2,                   !- Name
  ,                                       !- Space Type Name
  ,                                       !- Default Construction Set Name
  ,                                       !- Default Schedule Set Name
  -0,                                     !- Direction of Relative North {deg}
  0,                                      !- X Origin {m}
  0,                                      !- Y Origin {m}
  2.4384,                                 !- Z Origin {m}
  ,                                       !- Building Story Name
  {e4ebeb4f-af93-4342-8137-49938290c0eb}, !- Thermal Zone Name
  ,                                       !- Part of Total Floor Area
  ,                                       !- Design Specification Outdoor Air Object Name
  {42a76ad0-12a8-4ab7-9c3c-a5a20083c6a3}; !- Building Unit Name

OS:Surface,
  {e73f7323-9021-4f8b-97c8-dcadf6b3e406}, !- Handle
  Surface 7,                              !- Name
  Floor,                                  !- Surface Type
  {6314ed47-1817-4366-9574-883babac7555}, !- Construction Name
  {463fe27d-4caa-408a-ba85-1bbc77606128}, !- Space Name
  Surface,                                !- Outside Boundary Condition
  {3a27c5d1-042f-4d9f-91b3-a569861eb91f}, !- Outside Boundary Condition Object
  NoSun,                                  !- Sun Exposure
  NoWind,                                 !- Wind Exposure
  ,                                       !- View Factor to Ground
  ,                                       !- Number of Vertices
  0, 0, 0,                                !- X,Y,Z Vertex 1 {m}
  0, 6.81553519541936, 0,                 !- X,Y,Z Vertex 2 {m}
  13.6310703908387, 6.81553519541936, 0,  !- X,Y,Z Vertex 3 {m}
  13.6310703908387, 0, 0;                 !- X,Y,Z Vertex 4 {m}

OS:Surface,
  {49839ff5-6cce-4815-a9f7-e4c684f8b41f}, !- Handle
  Surface 8,                              !- Name
  Wall,                                   !- Surface Type
  {81946ebb-625a-451f-a909-6b497bbdfabd}, !- Construction Name
  {463fe27d-4caa-408a-ba85-1bbc77606128}, !- Space Name
  Outdoors,                               !- Outside Boundary Condition
  ,                                       !- Outside Boundary Condition Object
  SunExposed,                             !- Sun Exposure
  WindExposed,                            !- Wind Exposure
  ,                                       !- View Factor to Ground
  ,                                       !- Number of Vertices
  0, 6.81553519541936, 2.4384,            !- X,Y,Z Vertex 1 {m}
  0, 6.81553519541936, 0,                 !- X,Y,Z Vertex 2 {m}
  0, 0, 0,                                !- X,Y,Z Vertex 3 {m}
  0, 0, 2.4384;                           !- X,Y,Z Vertex 4 {m}

OS:Surface,
  {97259426-aa08-43f5-8c70-58425417002e}, !- Handle
  Surface 9,                              !- Name
  Wall,                                   !- Surface Type
  {81946ebb-625a-451f-a909-6b497bbdfabd}, !- Construction Name
  {463fe27d-4caa-408a-ba85-1bbc77606128}, !- Space Name
  Outdoors,                               !- Outside Boundary Condition
  ,                                       !- Outside Boundary Condition Object
  SunExposed,                             !- Sun Exposure
  WindExposed,                            !- Wind Exposure
  ,                                       !- View Factor to Ground
  ,                                       !- Number of Vertices
  13.6310703908387, 6.81553519541936, 2.4384, !- X,Y,Z Vertex 1 {m}
  13.6310703908387, 6.81553519541936, 0,  !- X,Y,Z Vertex 2 {m}
  0, 6.81553519541936, 0,                 !- X,Y,Z Vertex 3 {m}
  0, 6.81553519541936, 2.4384;            !- X,Y,Z Vertex 4 {m}

OS:Surface,
  {dca673aa-9282-44ea-9546-a2608da092fc}, !- Handle
  Surface 10,                             !- Name
  Wall,                                   !- Surface Type
  {81946ebb-625a-451f-a909-6b497bbdfabd}, !- Construction Name
  {463fe27d-4caa-408a-ba85-1bbc77606128}, !- Space Name
  Outdoors,                               !- Outside Boundary Condition
  ,                                       !- Outside Boundary Condition Object
  SunExposed,                             !- Sun Exposure
  WindExposed,                            !- Wind Exposure
  ,                                       !- View Factor to Ground
  ,                                       !- Number of Vertices
  13.6310703908387, 0, 2.4384,            !- X,Y,Z Vertex 1 {m}
  13.6310703908387, 0, 0,                 !- X,Y,Z Vertex 2 {m}
  13.6310703908387, 6.81553519541936, 0,  !- X,Y,Z Vertex 3 {m}
  13.6310703908387, 6.81553519541936, 2.4384; !- X,Y,Z Vertex 4 {m}

OS:Surface,
  {7e857312-c43d-490e-b8db-f40a25a344eb}, !- Handle
  Surface 11,                             !- Name
  Wall,                                   !- Surface Type
  {81946ebb-625a-451f-a909-6b497bbdfabd}, !- Construction Name
  {463fe27d-4caa-408a-ba85-1bbc77606128}, !- Space Name
  Outdoors,                               !- Outside Boundary Condition
  ,                                       !- Outside Boundary Condition Object
  SunExposed,                             !- Sun Exposure
  WindExposed,                            !- Wind Exposure
  ,                                       !- View Factor to Ground
  ,                                       !- Number of Vertices
  0, 0, 2.4384,                           !- X,Y,Z Vertex 1 {m}
  0, 0, 0,                                !- X,Y,Z Vertex 2 {m}
  13.6310703908387, 0, 0,                 !- X,Y,Z Vertex 3 {m}
  13.6310703908387, 0, 2.4384;            !- X,Y,Z Vertex 4 {m}

OS:Surface,
  {15cba3a9-0490-4cce-829c-58e91a00e57c}, !- Handle
  Surface 12,                             !- Name
  RoofCeiling,                            !- Surface Type
  {fb52360b-45c4-4306-8a49-c7926bb9c0e6}, !- Construction Name
  {463fe27d-4caa-408a-ba85-1bbc77606128}, !- Space Name
  Surface,                                !- Outside Boundary Condition
  {38df5e81-3a79-4231-a824-6e8f55645fd2}, !- Outside Boundary Condition Object
  NoSun,                                  !- Sun Exposure
  NoWind,                                 !- Wind Exposure
  ,                                       !- View Factor to Ground
  ,                                       !- Number of Vertices
  13.6310703908387, 0, 2.4384,            !- X,Y,Z Vertex 1 {m}
  13.6310703908387, 6.81553519541936, 2.4384, !- X,Y,Z Vertex 2 {m}
  0, 6.81553519541936, 2.4384,            !- X,Y,Z Vertex 3 {m}
  0, 0, 2.4384;                           !- X,Y,Z Vertex 4 {m}

OS:Surface,
  {38df5e81-3a79-4231-a824-6e8f55645fd2}, !- Handle
  Surface 13,                             !- Name
  Floor,                                  !- Surface Type
  {9ff43c13-9390-40c8-a09a-379e54e220ab}, !- Construction Name
  {72f4b9fb-4c7c-4437-bbbb-a29e6b4c9c6c}, !- Space Name
  Surface,                                !- Outside Boundary Condition
  {15cba3a9-0490-4cce-829c-58e91a00e57c}, !- Outside Boundary Condition Object
  NoSun,                                  !- Sun Exposure
  NoWind,                                 !- Wind Exposure
  ,                                       !- View Factor to Ground
  ,                                       !- Number of Vertices
  0, 6.81553519541936, 0,                 !- X,Y,Z Vertex 1 {m}
  13.6310703908387, 6.81553519541936, 0,  !- X,Y,Z Vertex 2 {m}
  13.6310703908387, 0, 0,                 !- X,Y,Z Vertex 3 {m}
  0, 0, 0;                                !- X,Y,Z Vertex 4 {m}

OS:Surface,
  {7365af80-6151-4c0b-8e5f-524ef88149ab}, !- Handle
  Surface 14,                             !- Name
  RoofCeiling,                            !- Surface Type
  {fe166efe-3409-49b9-a9ba-7dd52417bf2d}, !- Construction Name
  {72f4b9fb-4c7c-4437-bbbb-a29e6b4c9c6c}, !- Space Name
  Outdoors,                               !- Outside Boundary Condition
  ,                                       !- Outside Boundary Condition Object
  SunExposed,                             !- Sun Exposure
  WindExposed,                            !- Wind Exposure
  ,                                       !- View Factor to Ground
  ,                                       !- Number of Vertices
  13.6310703908387, 3.40776759770968, 1.70388379885484, !- X,Y,Z Vertex 1 {m}
  0, 3.40776759770968, 1.70388379885484,  !- X,Y,Z Vertex 2 {m}
  0, 0, 0,                                !- X,Y,Z Vertex 3 {m}
  13.6310703908387, 0, 0;                 !- X,Y,Z Vertex 4 {m}

OS:Surface,
  {78bad817-be13-4af3-98d3-dbeef94c004b}, !- Handle
  Surface 15,                             !- Name
  RoofCeiling,                            !- Surface Type
  {fe166efe-3409-49b9-a9ba-7dd52417bf2d}, !- Construction Name
  {72f4b9fb-4c7c-4437-bbbb-a29e6b4c9c6c}, !- Space Name
  Outdoors,                               !- Outside Boundary Condition
  ,                                       !- Outside Boundary Condition Object
  SunExposed,                             !- Sun Exposure
  WindExposed,                            !- Wind Exposure
  ,                                       !- View Factor to Ground
  ,                                       !- Number of Vertices
  0, 3.40776759770968, 1.70388379885484,  !- X,Y,Z Vertex 1 {m}
  13.6310703908387, 3.40776759770968, 1.70388379885484, !- X,Y,Z Vertex 2 {m}
  13.6310703908387, 6.81553519541936, 0,  !- X,Y,Z Vertex 3 {m}
  0, 6.81553519541936, 0;                 !- X,Y,Z Vertex 4 {m}

OS:Surface,
  {6c4975e4-572c-4229-b902-94521d920eea}, !- Handle
  Surface 16,                             !- Name
  Wall,                                   !- Surface Type
  {847278cd-33e8-4c0e-8e2e-f759f8915b5b}, !- Construction Name
  {72f4b9fb-4c7c-4437-bbbb-a29e6b4c9c6c}, !- Space Name
  Outdoors,                               !- Outside Boundary Condition
  ,                                       !- Outside Boundary Condition Object
  SunExposed,                             !- Sun Exposure
  WindExposed,                            !- Wind Exposure
  ,                                       !- View Factor to Ground
  ,                                       !- Number of Vertices
  0, 3.40776759770968, 1.70388379885484,  !- X,Y,Z Vertex 1 {m}
  0, 6.81553519541936, 0,                 !- X,Y,Z Vertex 2 {m}
  0, 0, 0;                                !- X,Y,Z Vertex 3 {m}

OS:Surface,
  {20a2b6ab-1680-49d8-bd7e-ed107ba51606}, !- Handle
  Surface 17,                             !- Name
  Wall,                                   !- Surface Type
  {847278cd-33e8-4c0e-8e2e-f759f8915b5b}, !- Construction Name
  {72f4b9fb-4c7c-4437-bbbb-a29e6b4c9c6c}, !- Space Name
  Outdoors,                               !- Outside Boundary Condition
  ,                                       !- Outside Boundary Condition Object
  SunExposed,                             !- Sun Exposure
  WindExposed,                            !- Wind Exposure
  ,                                       !- View Factor to Ground
  ,                                       !- Number of Vertices
  13.6310703908387, 3.40776759770968, 1.70388379885484, !- X,Y,Z Vertex 1 {m}
  13.6310703908387, 0, 0,                 !- X,Y,Z Vertex 2 {m}
  13.6310703908387, 6.81553519541936, 0;  !- X,Y,Z Vertex 3 {m}

OS:Space,
  {72f4b9fb-4c7c-4437-bbbb-a29e6b4c9c6c}, !- Handle
  unfinished attic space,                 !- Name
  ,                                       !- Space Type Name
  ,                                       !- Default Construction Set Name
  ,                                       !- Default Schedule Set Name
  -0,                                     !- Direction of Relative North {deg}
  0,                                      !- X Origin {m}
  0,                                      !- Y Origin {m}
  4.8768,                                 !- Z Origin {m}
  ,                                       !- Building Story Name
  {48e366cb-e5ae-41be-8b0b-194d8ac219d1}; !- Thermal Zone Name

OS:ThermalZone,
  {48e366cb-e5ae-41be-8b0b-194d8ac219d1}, !- Handle
  unfinished attic zone,                  !- Name
  ,                                       !- Multiplier
  ,                                       !- Ceiling Height {m}
  ,                                       !- Volume {m3}
  ,                                       !- Floor Area {m2}
  ,                                       !- Zone Inside Convection Algorithm
  ,                                       !- Zone Outside Convection Algorithm
  ,                                       !- Zone Conditioning Equipment List Name
  {f6db1213-5ff9-4d32-a764-6875d0e616d1}, !- Zone Air Inlet Port List
  {8e9813e2-a83b-4ebf-8c9f-d82c325a08ba}, !- Zone Air Exhaust Port List
  {a2f4720e-4f98-4084-952a-b308e2ff8f15}, !- Zone Air Node Name
  ,                                       !- Zone Return Air Node Name
  ,                                       !- Primary Daylighting Control Name
  ,                                       !- Fraction of Zone Controlled by Primary Daylighting Control
  ,                                       !- Secondary Daylighting Control Name
  ,                                       !- Fraction of Zone Controlled by Secondary Daylighting Control
  ,                                       !- Illuminance Map Name
  ,                                       !- Group Rendering Name
  ,                                       !- Thermostat Name
  No;                                     !- Use Ideal Air Loads

OS:Node,
  {dc8863df-33fa-472e-9ea2-b4762fc4e6a2}, !- Handle
  Node 2,                                 !- Name
  {a2f4720e-4f98-4084-952a-b308e2ff8f15}, !- Inlet Port
  ;                                       !- Outlet Port

OS:Connection,
  {a2f4720e-4f98-4084-952a-b308e2ff8f15}, !- Handle
  {021e3314-9c9e-472e-b75c-597b05898d63}, !- Name
  {48e366cb-e5ae-41be-8b0b-194d8ac219d1}, !- Source Object
  11,                                     !- Outlet Port
  {dc8863df-33fa-472e-9ea2-b4762fc4e6a2}, !- Target Object
  2;                                      !- Inlet Port

OS:PortList,
  {f6db1213-5ff9-4d32-a764-6875d0e616d1}, !- Handle
  {ac024e1c-f074-4ceb-9667-8030bcde8733}, !- Name
  {48e366cb-e5ae-41be-8b0b-194d8ac219d1}; !- HVAC Component

OS:PortList,
  {8e9813e2-a83b-4ebf-8c9f-d82c325a08ba}, !- Handle
  {f167ff13-46ab-4088-a6da-ce25df953003}, !- Name