!- NOTE: Auto-generated from /test/osw_files/SFD_2000sqft_2story_UB_GRG_UA.osw

OS:Version,
  {a982a01a-ec1a-41ed-94fb-d6303e626f3e}, !- Handle
  2.3.1;                                  !- Version Identifier

OS:Building,
  {bf305633-c5a1-4881-9edf-ca5e1a8e1274}, !- Handle
  Building,                               !- Name
  ,                                       !- Building Sector Type
  ,                                       !- North Axis {deg}
  ,                                       !- Nominal Floor to Floor Height {m}
  ,                                       !- Space Type Name
  ,                                       !- Default Construction Set Name
  ,                                       !- Default Schedule Set Name
  2,                                      !- Standards Number of Stories
  2,                                      !- Standards Number of Above Ground Stories
  singlefamilydetached,                   !- Standards Building Type
  1;                                      !- Standards Number of Living Units

OS:YearDescription,
  {513d8dda-86cb-442a-b01c-1f7f0e0ac70e}; !- Handle

OS:SimulationControl,
  {2c487a4c-bac9-4ac5-b669-1e49d9da7c2b}, !- Handle
  ,                                       !- Do Zone Sizing Calculation
  ,                                       !- Do System Sizing Calculation
  ,                                       !- Do Plant Sizing Calculation
  No,                                     !- Run Simulation for Sizing Periods
  ;                                       !- Run Simulation for Weather File Run Periods

OS:Timestep,
  {4ebc9f1e-4707-402e-9844-67eb1ffbd522}, !- Handle
  6;                                      !- Number of Timesteps per Hour

OS:RunPeriod,
  {28df894d-6af9-4fb8-8f56-df1753344aa3}, !- Handle
  Run Period,                             !- Name
  1,                                      !- Begin Month
  1,                                      !- Begin Day of Month
  12,                                     !- End Month
  31,                                     !- End Day of Month
  ,                                       !- Use Weather File Holidays and Special Days
  ,                                       !- Use Weather File Daylight Saving Period
  ,                                       !- Apply Weekend Holiday Rule
  ,                                       !- Use Weather File Rain Indicators
  ,                                       !- Use Weather File Snow Indicators
  ;                                       !- Number of Times Runperiod to be Repeated

OS:Sizing:Parameters,
  {dde5af6f-7923-4600-a28a-7556673a0266}, !- Handle
  1.0,                                    !- Heating Sizing Factor
  1.0;                                    !- Cooling Sizing Factor

OS:ShadowCalculation,
  {ca758bea-4416-4626-9bba-3d8795c79bd6}, !- Handle
  20,                                     !- Calculation Frequency
  200;                                    !- Maximum Figures in Shadow Overlap Calculations

OS:SurfaceConvectionAlgorithm:Inside,
  {aaabfc36-718a-4ab0-b622-f186ebb45230}, !- Handle
  TARP;                                   !- Algorithm

OS:SurfaceConvectionAlgorithm:Outside,
  {9a0a9f6f-4bbd-4b12-a121-9492a1fcd7d6}, !- Handle
  DOE-2;                                  !- Algorithm

OS:HeatBalanceAlgorithm,
  {9d93e563-e1e0-46d7-9e39-d1c8aceb7212}, !- Handle
  ConductionTransferFunction,             !- Algorithm
  200;                                    !- Surface Temperature Upper Limit {C}

OS:ZoneCapacitanceMultiplier:ResearchSpecial,
  {6bfced16-b16f-47f6-8223-f7e267d75d19}, !- Handle
  ,                                       !- Temperature Capacity Multiplier
  15,                                     !- Humidity Capacity Multiplier
  ;                                       !- Carbon Dioxide Capacity Multiplier

OS:ThermalZone,
  {aad23451-4107-4386-b8d6-58caae91746f}, !- Handle
  living zone,                            !- Name
  ,                                       !- Multiplier
  ,                                       !- Ceiling Height {m}
  ,                                       !- Volume {m3}
  ,                                       !- Floor Area {m2}
  ,                                       !- Zone Inside Convection Algorithm
  ,                                       !- Zone Outside Convection Algorithm
  ,                                       !- Zone Conditioning Equipment List Name
  {722b161b-5eb0-4af9-93c0-fda0048f4164}, !- Zone Air Inlet Port List
  {649d2ae0-079b-4eb1-8cff-164c5edb2bf5}, !- Zone Air Exhaust Port List
  {013da17e-f99f-4f0f-a558-4ac416cee48c}, !- Zone Air Node Name
  ,                                       !- Zone Return Air Node Name
  ,                                       !- Primary Daylighting Control Name
  ,                                       !- Fraction of Zone Controlled by Primary Daylighting Control
  ,                                       !- Secondary Daylighting Control Name
  ,                                       !- Fraction of Zone Controlled by Secondary Daylighting Control
  ,                                       !- Illuminance Map Name
  ,                                       !- Group Rendering Name
  ,                                       !- Thermostat Name
  No;                                     !- Use Ideal Air Loads

OS:Node,
  {7b2ab72c-c6db-4aa3-a7c0-44e1c9992669}, !- Handle
  Node 1,                                 !- Name
  {013da17e-f99f-4f0f-a558-4ac416cee48c}, !- Inlet Port
  ;                                       !- Outlet Port

OS:Connection,
  {013da17e-f99f-4f0f-a558-4ac416cee48c}, !- Handle
  {b5ea78ca-f6b5-4ce9-b67f-a44d241b22bb}, !- Name
  {aad23451-4107-4386-b8d6-58caae91746f}, !- Source Object
  11,                                     !- Outlet Port
  {7b2ab72c-c6db-4aa3-a7c0-44e1c9992669}, !- Target Object
  2;                                      !- Inlet Port

OS:PortList,
  {722b161b-5eb0-4af9-93c0-fda0048f4164}, !- Handle
  {22723cb9-94be-4570-9382-f3f3d0ebc47d}, !- Name
  {aad23451-4107-4386-b8d6-58caae91746f}; !- HVAC Component

OS:PortList,
  {649d2ae0-079b-4eb1-8cff-164c5edb2bf5}, !- Handle
  {004777fc-3c82-460e-b252-930a4b4d8a29}, !- Name
  {aad23451-4107-4386-b8d6-58caae91746f}; !- HVAC Component

OS:Sizing:Zone,
  {3a8d0615-ed75-4e6d-9769-6a704363e28f}, !- Handle
  {aad23451-4107-4386-b8d6-58caae91746f}, !- Zone or ZoneList Name
  SupplyAirTemperature,                   !- Zone Cooling Design Supply Air Temperature Input Method
  14,                                     !- Zone Cooling Design Supply Air Temperature {C}
  11.11,                                  !- Zone Cooling Design Supply Air Temperature Difference {deltaC}
  SupplyAirTemperature,                   !- Zone Heating Design Supply Air Temperature Input Method
  40,                                     !- Zone Heating Design Supply Air Temperature {C}
  11.11,                                  !- Zone Heating Design Supply Air Temperature Difference {deltaC}
  0.0085,                                 !- Zone Cooling Design Supply Air Humidity Ratio {kg-H2O/kg-air}
  0.008,                                  !- Zone Heating Design Supply Air Humidity Ratio {kg-H2O/kg-air}
  ,                                       !- Zone Heating Sizing Factor
  ,                                       !- Zone Cooling Sizing Factor
  DesignDay,                              !- Cooling Design Air Flow Method
  ,                                       !- Cooling Design Air Flow Rate {m3/s}
  ,                                       !- Cooling Minimum Air Flow per Zone Floor Area {m3/s-m2}
  ,                                       !- Cooling Minimum Air Flow {m3/s}
  ,                                       !- Cooling Minimum Air Flow Fraction
  DesignDay,                              !- Heating Design Air Flow Method
  ,                                       !- Heating Design Air Flow Rate {m3/s}
  ,                                       !- Heating Maximum Air Flow per Zone Floor Area {m3/s-m2}
  ,                                       !- Heating Maximum Air Flow {m3/s}
  ,                                       !- Heating Maximum Air Flow Fraction
  ,                                       !- Design Zone Air Distribution Effectiveness in Cooling Mode
  ,                                       !- Design Zone Air Distribution Effectiveness in Heating Mode
  No,                                     !- Account for Dedicated Outdoor Air System
  NeutralSupplyAir,                       !- Dedicated Outdoor Air System Control Strategy
  autosize,                               !- Dedicated Outdoor Air Low Setpoint Temperature for Design {C}
  autosize;                               !- Dedicated Outdoor Air High Setpoint Temperature for Design {C}

OS:ZoneHVAC:EquipmentList,
  {98546016-4ad7-4ff1-8182-162559b5d61e}, !- Handle
  Zone HVAC Equipment List 1,             !- Name
  {aad23451-4107-4386-b8d6-58caae91746f}; !- Thermal Zone

OS:ThermalZone,
  {a05df359-7ab4-4f38-b08c-cb89401cf867}, !- Handle
  garage zone,                            !- Name
  ,                                       !- Multiplier
  ,                                       !- Ceiling Height {m}
  ,                                       !- Volume {m3}
  ,                                       !- Floor Area {m2}
  ,                                       !- Zone Inside Convection Algorithm
  ,                                       !- Zone Outside Convection Algorithm
  ,                                       !- Zone Conditioning Equipment List Name
  {149b6c22-d768-400b-82b6-a96562dde413}, !- Zone Air Inlet Port List
  {691760dc-b4f0-4357-bbf2-a6a3a8f76405}, !- Zone Air Exhaust Port List
  {afaca860-db6b-409e-b49f-86e9ef76645e}, !- Zone Air Node Name
  ,                                       !- Zone Return Air Node Name
  ,                                       !- Primary Daylighting Control Name
  ,                                       !- Fraction of Zone Controlled by Primary Daylighting Control
  ,                                       !- Secondary Daylighting Control Name
  ,                                       !- Fraction of Zone Controlled by Secondary Daylighting Control
  ,                                       !- Illuminance Map Name
  ,                                       !- Group Rendering Name
  ,                                       !- Thermostat Name
  No;                                     !- Use Ideal Air Loads

OS:Node,
  {a79533e8-45b8-4e3d-933f-bdbf4848df05}, !- Handle
  Node 2,                                 !- Name
  {afaca860-db6b-409e-b49f-86e9ef76645e}, !- Inlet Port
  ;                                       !- Outlet Port

OS:Connection,
  {afaca860-db6b-409e-b49f-86e9ef76645e}, !- Handle
  {127f6a8e-01f8-465d-b446-47f91031ce7a}, !- Name
  {a05df359-7ab4-4f38-b08c-cb89401cf867}, !- Source Object
  11,                                     !- Outlet Port
  {a79533e8-45b8-4e3d-933f-bdbf4848df05}, !- Target Object
  2;                                      !- Inlet Port

OS:PortList,
  {149b6c22-d768-400b-82b6-a96562dde413}, !- Handle
  {493d51bf-6122-462a-bc62-ea9e22d6d332}, !- Name
  {a05df359-7ab4-4f38-b08c-cb89401cf867}; !- HVAC Component

OS:PortList,
  {691760dc-b4f0-4357-bbf2-a6a3a8f76405}, !- Handle
  {14db07f2-bfff-4e05-9e3e-31628770617e}, !- Name
  {a05df359-7ab4-4f38-b08c-cb89401cf867}; !- HVAC Component

OS:Sizing:Zone,
  {63b5ee09-87ea-40f7-a772-f9715ea7f44a}, !- Handle
  {a05df359-7ab4-4f38-b08c-cb89401cf867}, !- Zone or ZoneList Name
  SupplyAirTemperature,                   !- Zone Cooling Design Supply Air Temperature Input Method
  14,                                     !- Zone Cooling Design Supply Air Temperature {C}
  11.11,                                  !- Zone Cooling Design Supply Air Temperature Difference {deltaC}
  SupplyAirTemperature,                   !- Zone Heating Design Supply Air Temperature Input Method
  40,                                     !- Zone Heating Design Supply Air Temperature {C}
  11.11,                                  !- Zone Heating Design Supply Air Temperature Difference {deltaC}
  0.0085,                                 !- Zone Cooling Design Supply Air Humidity Ratio {kg-H2O/kg-air}
  0.008,                                  !- Zone Heating Design Supply Air Humidity Ratio {kg-H2O/kg-air}
  ,                                       !- Zone Heating Sizing Factor
  ,                                       !- Zone Cooling Sizing Factor
  DesignDay,                              !- Cooling Design Air Flow Method
  ,                                       !- Cooling Design Air Flow Rate {m3/s}
  ,                                       !- Cooling Minimum Air Flow per Zone Floor Area {m3/s-m2}
  ,                                       !- Cooling Minimum Air Flow {m3/s}
  ,                                       !- Cooling Minimum Air Flow Fraction
  DesignDay,                              !- Heating Design Air Flow Method
  ,                                       !- Heating Design Air Flow Rate {m3/s}
  ,                                       !- Heating Maximum Air Flow per Zone Floor Area {m3/s-m2}
  ,                                       !- Heating Maximum Air Flow {m3/s}
  ,                                       !- Heating Maximum Air Flow Fraction
  ,                                       !- Design Zone Air Distribution Effectiveness in Cooling Mode
  ,                                       !- Design Zone Air Distribution Effectiveness in Heating Mode
  No,                                     !- Account for Dedicated Outdoor Air System
  NeutralSupplyAir,                       !- Dedicated Outdoor Air System Control Strategy
  autosize,                               !- Dedicated Outdoor Air Low Setpoint Temperature for Design {C}
  autosize;                               !- Dedicated Outdoor Air High Setpoint Temperature for Design {C}

OS:ZoneHVAC:EquipmentList,
  {4839a591-4694-4dbe-9e6d-2b7b66367aa5}, !- Handle
  Zone HVAC Equipment List 2,             !- Name
  {a05df359-7ab4-4f38-b08c-cb89401cf867}; !- Thermal Zone

OS:Space,
  {247054ce-5be5-450a-9553-a05816691bf6}, !- Handle
  garage space,                           !- Name
  ,                                       !- Space Type Name
  ,                                       !- Default Construction Set Name
  ,                                       !- Default Schedule Set Name
  -0,                                     !- Direction of Relative North {deg}
  0,                                      !- X Origin {m}
  0,                                      !- Y Origin {m}
  0,                                      !- Z Origin {m}
  ,                                       !- Building Story Name
  {a05df359-7ab4-4f38-b08c-cb89401cf867}, !- Thermal Zone Name
  ,                                       !- Part of Total Floor Area
  ,                                       !- Design Specification Outdoor Air Object Name
  {ca8cd3f6-a0e3-41ba-a4c4-96507dcb5264}; !- Building Unit Name

OS:Surface,
  {70a0f1e3-faac-439b-9b1d-370254ff2e0a}, !- Handle
  Surface 1,                              !- Name
  Floor,                                  !- Surface Type
  ,                                       !- Construction Name
  {247054ce-5be5-450a-9553-a05816691bf6}, !- Space Name
  Ground,                                 !- Outside Boundary Condition
  ,                                       !- Outside Boundary Condition Object
  NoSun,                                  !- Sun Exposure
  NoWind,                                 !- Wind Exposure
  ,                                       !- View Factor to Ground
  ,                                       !- Number of Vertices
  7.53507039083872, -3.048, 0,            !- X,Y,Z Vertex 1 {m}
  7.53507039083872, 3.048, 0,             !- X,Y,Z Vertex 2 {m}
  13.6310703908387, 3.048, 0,             !- X,Y,Z Vertex 3 {m}
  13.6310703908387, -3.048, 0;            !- X,Y,Z Vertex 4 {m}

OS:Surface,
  {b9f9bab5-ba1e-46c2-b11a-8795ce6f9ded}, !- Handle
  Surface 2,                              !- Name
  Wall,                                   !- Surface Type
  ,                                       !- Construction Name
  {247054ce-5be5-450a-9553-a05816691bf6}, !- Space Name
  Surface,                                !- Outside Boundary Condition
  {5c627a77-6287-4ed2-a149-7b3e68a25737}, !- Outside Boundary Condition Object
  NoSun,                                  !- Sun Exposure
  NoWind,                                 !- Wind Exposure
  ,                                       !- View Factor to Ground
  ,                                       !- Number of Vertices
  7.53507039083872, 3.048, 2.4384,        !- X,Y,Z Vertex 1 {m}
  7.53507039083872, 3.048, 0,             !- X,Y,Z Vertex 2 {m}
  7.53507039083872, 0, 0,                 !- X,Y,Z Vertex 3 {m}
  7.53507039083872, 0, 2.4384;            !- X,Y,Z Vertex 4 {m}

OS:Surface,
  {c9cce0bc-8ba4-43c6-8f6d-b39fa4a8e35f}, !- Handle
  Surface 3,                              !- Name
  Wall,                                   !- Surface Type
  ,                                       !- Construction Name
  {247054ce-5be5-450a-9553-a05816691bf6}, !- Space Name
  Surface,                                !- Outside Boundary Condition
  {898e0ca3-6768-488c-8131-e74a8503a6ff}, !- Outside Boundary Condition Object
  NoSun,                                  !- Sun Exposure
  NoWind,                                 !- Wind Exposure
  ,                                       !- View Factor to Ground
  ,                                       !- Number of Vertices
  13.6310703908387, 3.048, 2.4384,        !- X,Y,Z Vertex 1 {m}
  13.6310703908387, 3.048, 0,             !- X,Y,Z Vertex 2 {m}
  7.53507039083872, 3.048, 0,             !- X,Y,Z Vertex 3 {m}
  7.53507039083872, 3.048, 2.4384;        !- X,Y,Z Vertex 4 {m}

OS:Surface,
  {f09d8df9-956a-4e3e-b1bb-4ae9d4ddb099}, !- Handle
  Surface 4,                              !- Name
  Wall,                                   !- Surface Type
  ,                                       !- Construction Name
  {247054ce-5be5-450a-9553-a05816691bf6}, !- Space Name
  Outdoors,                               !- Outside Boundary Condition
  ,                                       !- Outside Boundary Condition Object
  SunExposed,                             !- Sun Exposure
  WindExposed,                            !- Wind Exposure
  ,                                       !- View Factor to Ground
  ,                                       !- Number of Vertices
  13.6310703908387, -3.048, 2.4384,       !- X,Y,Z Vertex 1 {m}
  13.6310703908387, -3.048, 0,            !- X,Y,Z Vertex 2 {m}
  13.6310703908387, 3.048, 0,             !- X,Y,Z Vertex 3 {m}
  13.6310703908387, 3.048, 2.4384;        !- X,Y,Z Vertex 4 {m}

OS:Surface,
  {f19743f1-df1e-41df-a5be-4c5ccc90668c}, !- Handle
  Surface 5,                              !- Name
  Wall,                                   !- Surface Type
  ,                                       !- Construction Name
  {247054ce-5be5-450a-9553-a05816691bf6}, !- Space Name
  Outdoors,                               !- Outside Boundary Condition
  ,                                       !- Outside Boundary Condition Object
  SunExposed,                             !- Sun Exposure
  WindExposed,                            !- Wind Exposure
  ,                                       !- View Factor to Ground
  ,                                       !- Number of Vertices
  7.53507039083872, -3.048, 2.4384,       !- X,Y,Z Vertex 1 {m}
  7.53507039083872, -3.048, 0,            !- X,Y,Z Vertex 2 {m}
  13.6310703908387, -3.048, 0,            !- X,Y,Z Vertex 3 {m}
  13.6310703908387, -3.048, 2.4384;       !- X,Y,Z Vertex 4 {m}

OS:Surface,
  {3558470e-9673-48c4-9d0b-d988ff22e9ff}, !- Handle
  Surface 6,                              !- Name
  RoofCeiling,                            !- Surface Type
  ,                                       !- Construction Name
  {247054ce-5be5-450a-9553-a05816691bf6}, !- Space Name
  Surface,                                !- Outside Boundary Condition
  {88e80bf1-f68d-420a-bf5a-7ce04dca7599}, !- Outside Boundary Condition Object
  NoSun,                                  !- Sun Exposure
  NoWind,                                 !- Wind Exposure
  ,                                       !- View Factor to Ground
  ,                                       !- Number of Vertices
  13.6310703908387, -3.048, 2.4384,       !- X,Y,Z Vertex 1 {m}
  13.6310703908387, 3.048, 2.4384,        !- X,Y,Z Vertex 2 {m}
  7.53507039083872, 3.048, 2.4384,        !- X,Y,Z Vertex 3 {m}
  7.53507039083872, 0, 2.4384,            !- X,Y,Z Vertex 4 {m}
  7.53507039083872, -3.048, 2.4384;       !- X,Y,Z Vertex 5 {m}

OS:Space,
  {9c8885c3-4d51-45b0-89b7-359c4e7ecc1d}, !- Handle
  living space,                           !- Name
  ,                                       !- Space Type Name
  ,                                       !- Default Construction Set Name
  ,                                       !- Default Schedule Set Name
  -0,                                     !- Direction of Relative North {deg}
  0,                                      !- X Origin {m}
  0,                                      !- Y Origin {m}
  0,                                      !- Z Origin {m}
  ,                                       !- Building Story Name
  {aad23451-4107-4386-b8d6-58caae91746f}, !- Thermal Zone Name
  ,                                       !- Part of Total Floor Area
  ,                                       !- Design Specification Outdoor Air Object Name
  {ca8cd3f6-a0e3-41ba-a4c4-96507dcb5264}; !- Building Unit Name

OS:Surface,
  {93960874-2564-49e7-8964-51d706a6c816}, !- Handle
  Surface 7,                              !- Name
  Floor,                                  !- Surface Type
  ,                                       !- Construction Name
  {9c8885c3-4d51-45b0-89b7-359c4e7ecc1d}, !- Space Name
  Surface,                                !- Outside Boundary Condition
  {da0ad3c3-3300-46db-b959-7dccbe584f86}, !- Outside Boundary Condition Object
  NoSun,                                  !- Sun Exposure
  NoWind,                                 !- Wind Exposure
  ,                                       !- View Factor to Ground
  ,                                       !- Number of Vertices
  0, 0, 0,                                !- X,Y,Z Vertex 1 {m}
  0, 6.81553519541936, 0,                 !- X,Y,Z Vertex 2 {m}
  13.6310703908387, 6.81553519541936, 0,  !- X,Y,Z Vertex 3 {m}
  13.6310703908387, 3.048, 0,             !- X,Y,Z Vertex 4 {m}
  7.53507039083872, 3.048, 0,             !- X,Y,Z Vertex 5 {m}
  7.53507039083872, 0, 0;                 !- X,Y,Z Vertex 6 {m}

OS:Surface,
  {8aa94c3f-d4b7-4720-8406-2ec4b05a548c}, !- Handle
  Surface 8,                              !- Name
  Wall,                                   !- Surface Type
  ,                                       !- Construction Name
  {9c8885c3-4d51-45b0-89b7-359c4e7ecc1d}, !- Space Name
  Outdoors,                               !- Outside Boundary Condition
  ,                                       !- Outside Boundary Condition Object
  SunExposed,                             !- Sun Exposure
  WindExposed,                            !- Wind Exposure
  ,                                       !- View Factor to Ground
  ,                                       !- Number of Vertices
  0, 6.81553519541936, 2.4384,            !- X,Y,Z Vertex 1 {m}
  0, 6.81553519541936, 0,                 !- X,Y,Z Vertex 2 {m}
  0, 0, 0,                                !- X,Y,Z Vertex 3 {m}
  0, 0, 2.4384;                           !- X,Y,Z Vertex 4 {m}

OS:Surface,
  {d94c2521-6391-4e09-9906-fc224199d572}, !- Handle
  Surface 9,                              !- Name
  Wall,                                   !- Surface Type
  ,                                       !- Construction Name
  {9c8885c3-4d51-45b0-89b7-359c4e7ecc1d}, !- Space Name
  Outdoors,                               !- Outside Boundary Condition
  ,                                       !- Outside Boundary Condition Object
  SunExposed,                             !- Sun Exposure
  WindExposed,                            !- Wind Exposure
  ,                                       !- View Factor to Ground
  ,                                       !- Number of Vertices
  13.6310703908387, 6.81553519541936, 2.4384, !- X,Y,Z Vertex 1 {m}
  13.6310703908387, 6.81553519541936, 0,  !- X,Y,Z Vertex 2 {m}
  0, 6.81553519541936, 0,                 !- X,Y,Z Vertex 3 {m}
  0, 6.81553519541936, 2.4384;            !- X,Y,Z Vertex 4 {m}

OS:Surface,
  {edc76f30-da29-43f8-bf78-1b1134d4f6e0}, !- Handle
  Surface 10,                             !- Name
  Wall,                                   !- Surface Type
  ,                                       !- Construction Name
  {9c8885c3-4d51-45b0-89b7-359c4e7ecc1d}, !- Space Name
  Outdoors,                               !- Outside Boundary Condition
  ,                                       !- Outside Boundary Condition Object
  SunExposed,                             !- Sun Exposure
  WindExposed,                            !- Wind Exposure
  ,                                       !- View Factor to Ground
  ,                                       !- Number of Vertices
  13.6310703908387, 3.048, 2.4384,        !- X,Y,Z Vertex 1 {m}
  13.6310703908387, 3.048, 0,             !- X,Y,Z Vertex 2 {m}
  13.6310703908387, 6.81553519541936, 0,  !- X,Y,Z Vertex 3 {m}
  13.6310703908387, 6.81553519541936, 2.4384; !- X,Y,Z Vertex 4 {m}

OS:Surface,
  {898e0ca3-6768-488c-8131-e74a8503a6ff}, !- Handle
  Surface 11,                             !- Name
  Wall,                                   !- Surface Type
  ,                                       !- Construction Name
  {9c8885c3-4d51-45b0-89b7-359c4e7ecc1d}, !- Space Name
  Surface,                                !- Outside Boundary Condition
  {c9cce0bc-8ba4-43c6-8f6d-b39fa4a8e35f}, !- Outside Boundary Condition Object
  NoSun,                                  !- Sun Exposure
  NoWind,                                 !- Wind Exposure
  ,                                       !- View Factor to Ground
  ,                                       !- Number of Vertices
  7.53507039083872, 3.048, 2.4384,        !- X,Y,Z Vertex 1 {m}
  7.53507039083872, 3.048, 0,             !- X,Y,Z Vertex 2 {m}
  13.6310703908387, 3.048, 0,             !- X,Y,Z Vertex 3 {m}
  13.6310703908387, 3.048, 2.4384;        !- X,Y,Z Vertex 4 {m}

OS:Surface,
  {5c627a77-6287-4ed2-a149-7b3e68a25737}, !- Handle
  Surface 12,                             !- Name
  Wall,                                   !- Surface Type
  ,                                       !- Construction Name
  {9c8885c3-4d51-45b0-89b7-359c4e7ecc1d}, !- Space Name
  Surface,                                !- Outside Boundary Condition
  {b9f9bab5-ba1e-46c2-b11a-8795ce6f9ded}, !- Outside Boundary Condition Object
  NoSun,                                  !- Sun Exposure
  NoWind,                                 !- Wind Exposure
  ,                                       !- View Factor to Ground
  ,                                       !- Number of Vertices
  7.53507039083872, 0, 2.4384,            !- X,Y,Z Vertex 1 {m}
  7.53507039083872, 0, 0,                 !- X,Y,Z Vertex 2 {m}
  7.53507039083872, 3.048, 0,             !- X,Y,Z Vertex 3 {m}
  7.53507039083872, 3.048, 2.4384;        !- X,Y,Z Vertex 4 {m}

OS:Surface,
  {6ef6f1d1-627d-4eca-80c6-c2c699114b1d}, !- Handle
  Surface 13,                             !- Name
  Wall,                                   !- Surface Type
  ,                                       !- Construction Name
  {9c8885c3-4d51-45b0-89b7-359c4e7ecc1d}, !- Space Name
  Outdoors,                               !- Outside Boundary Condition
  ,                                       !- Outside Boundary Condition Object
  SunExposed,                             !- Sun Exposure
  WindExposed,                            !- Wind Exposure
  ,                                       !- View Factor to Ground
  ,                                       !- Number of Vertices
  0, 0, 2.4384,                           !- X,Y,Z Vertex 1 {m}
  0, 0, 0,                                !- X,Y,Z Vertex 2 {m}
  7.53507039083872, 0, 0,                 !- X,Y,Z Vertex 3 {m}
  7.53507039083872, 0, 2.4384;            !- X,Y,Z Vertex 4 {m}

OS:Surface,
  {c3fc4e7f-89a3-4580-a375-e06833765785}, !- Handle
  Surface 14,                             !- Name
  RoofCeiling,                            !- Surface Type
  ,                                       !- Construction Name
  {9c8885c3-4d51-45b0-89b7-359c4e7ecc1d}, !- Space Name
  Surface,                                !- Outside Boundary Condition
  {2784030d-3778-40ad-b7bd-07f0d81e638f}, !- Outside Boundary Condition Object
  NoSun,                                  !- Sun Exposure
  NoWind,                                 !- Wind Exposure
  ,                                       !- View Factor to Ground
  ,                                       !- Number of Vertices
  7.53507039083872, 0, 2.4384,            !- X,Y,Z Vertex 1 {m}
  7.53507039083872, 3.048, 2.4384,        !- X,Y,Z Vertex 2 {m}
  13.6310703908387, 3.048, 2.4384,        !- X,Y,Z Vertex 3 {m}
  13.6310703908387, 6.81553519541936, 2.4384, !- X,Y,Z Vertex 4 {m}
  0, 6.81553519541936, 2.4384,            !- X,Y,Z Vertex 5 {m}
  0, 0, 2.4384;                           !- X,Y,Z Vertex 6 {m}

OS:Space,
  {54b28f63-8f95-42a0-a934-6a93b4e943ec}, !- Handle
  living space|story 2,                   !- Name
  ,                                       !- Space Type Name
  ,                                       !- Default Construction Set Name
  ,                                       !- Default Schedule Set Name
  -0,                                     !- Direction of Relative North {deg}