!- NOTE: Auto-generated from /test/osw_files/MF_8units_1story_SL_InsetLeft.osw

OS:Version,
  {80576783-6ef0-411a-adf9-16d2c0729276}, !- Handle
  2.2.1;                                  !- Version Identifier

OS:Building,
  {bf305633-c5a1-4881-9edf-ca5e1a8e1274}, !- Handle
  Building,                               !- Name
  ,                                       !- Building Sector Type
  ,                                       !- North Axis {deg}
  ,                                       !- Nominal Floor to Floor Height {m}
  ,                                       !- Space Type Name
  ,                                       !- Default Construction Set Name
  ,                                       !- Default Schedule Set Name
  1,                                      !- Standards Number of Stories
  1,                                      !- Standards Number of Above Ground Stories
  multifamily,                            !- Standards Building Type
  8;                                      !- Standards Number of Living Units

OS:YearDescription,
  {513d8dda-86cb-442a-b01c-1f7f0e0ac70e}; !- Handle

OS:SimulationControl,
  {2c487a4c-bac9-4ac5-b669-1e49d9da7c2b}, !- Handle
  ,                                       !- Do Zone Sizing Calculation
  ,                                       !- Do System Sizing Calculation
  ,                                       !- Do Plant Sizing Calculation
  No,                                     !- Run Simulation for Sizing Periods
  ;                                       !- Run Simulation for Weather File Run Periods

OS:Timestep,
  {4ebc9f1e-4707-402e-9844-67eb1ffbd522}, !- Handle
  6;                                      !- Number of Timesteps per Hour

OS:RunPeriod,
  {28df894d-6af9-4fb8-8f56-df1753344aa3}, !- Handle
  Run Period,                             !- Name
  1,                                      !- Begin Month
  1,                                      !- Begin Day of Month
  12,                                     !- End Month
  31,                                     !- End Day of Month
  ,                                       !- Use Weather File Holidays and Special Days
  ,                                       !- Use Weather File Daylight Saving Period
  ,                                       !- Apply Weekend Holiday Rule
  ,                                       !- Use Weather File Rain Indicators
  ,                                       !- Use Weather File Snow Indicators
  ;                                       !- Number of Times Runperiod to be Repeated

OS:Sizing:Parameters,
  {dde5af6f-7923-4600-a28a-7556673a0266}, !- Handle
  1.0,                                    !- Heating Sizing Factor
  1.0;                                    !- Cooling Sizing Factor

OS:ShadowCalculation,
  {ca758bea-4416-4626-9bba-3d8795c79bd6}, !- Handle
  20,                                     !- Calculation Frequency
  200;                                    !- Maximum Figures in Shadow Overlap Calculations

OS:SurfaceConvectionAlgorithm:Inside,
  {aaabfc36-718a-4ab0-b622-f186ebb45230}, !- Handle
  TARP;                                   !- Algorithm

OS:SurfaceConvectionAlgorithm:Outside,
  {9a0a9f6f-4bbd-4b12-a121-9492a1fcd7d6}, !- Handle
  DOE-2;                                  !- Algorithm

OS:HeatBalanceAlgorithm,
  {9d93e563-e1e0-46d7-9e39-d1c8aceb7212}, !- Handle
  ConductionTransferFunction,             !- Algorithm
  200;                                    !- Surface Temperature Upper Limit {C}

OS:ZoneCapacitanceMultiplier:ResearchSpecial,
  {6bfced16-b16f-47f6-8223-f7e267d75d19}, !- Handle
  ,                                       !- Temperature Capacity Multiplier
  15,                                     !- Humidity Capacity Multiplier
  ;                                       !- Carbon Dioxide Capacity Multiplier

OS:ThermalZone,
  {d675ae76-ac4b-4094-abab-89e7fe48886d}, !- Handle
  living zone,                            !- Name
  ,                                       !- Multiplier
  ,                                       !- Ceiling Height {m}
  ,                                       !- Volume {m3}
  ,                                       !- Floor Area {m2}
  ,                                       !- Zone Inside Convection Algorithm
  ,                                       !- Zone Outside Convection Algorithm
  ,                                       !- Zone Conditioning Equipment List Name
  {0be15ef8-1b83-4c05-9a5c-b1e2d5d02111}, !- Zone Air Inlet Port List
  {999b5ae8-4a25-445b-9fc5-4b809fb09dce}, !- Zone Air Exhaust Port List
  {f8e273e1-f4ee-47f3-90ba-d3c8885b9ced}, !- Zone Air Node Name
  ,                                       !- Zone Return Air Node Name
  ,                                       !- Primary Daylighting Control Name
  ,                                       !- Fraction of Zone Controlled by Primary Daylighting Control
  ,                                       !- Secondary Daylighting Control Name
  ,                                       !- Fraction of Zone Controlled by Secondary Daylighting Control
  ,                                       !- Illuminance Map Name
  ,                                       !- Group Rendering Name
  ,                                       !- Thermostat Name
  No;                                     !- Use Ideal Air Loads

OS:Node,
  {bdf4928b-ed9d-4413-9d05-b4a1f32e541a}, !- Handle
  Node 1,                                 !- Name
  {f8e273e1-f4ee-47f3-90ba-d3c8885b9ced}, !- Inlet Port
  ;                                       !- Outlet Port

OS:Connection,
  {f8e273e1-f4ee-47f3-90ba-d3c8885b9ced}, !- Handle
  {498290ce-98c1-4309-a6cf-875abf528a3d}, !- Name
  {d675ae76-ac4b-4094-abab-89e7fe48886d}, !- Source Object
  11,                                     !- Outlet Port
  {bdf4928b-ed9d-4413-9d05-b4a1f32e541a}, !- Target Object
  2;                                      !- Inlet Port

OS:PortList,
  {0be15ef8-1b83-4c05-9a5c-b1e2d5d02111}, !- Handle
  {1d22aaaf-37d7-41c5-ba75-ca67f1b609b2}, !- Name
  {d675ae76-ac4b-4094-abab-89e7fe48886d}; !- HVAC Component

OS:PortList,
  {999b5ae8-4a25-445b-9fc5-4b809fb09dce}, !- Handle
  {0af3506a-9e13-4398-86a5-5349588455f3}, !- Name
  {d675ae76-ac4b-4094-abab-89e7fe48886d}; !- HVAC Component

OS:Sizing:Zone,
  {41d30661-b091-44aa-aee4-1801e2a4160a}, !- Handle
  {d675ae76-ac4b-4094-abab-89e7fe48886d}, !- Zone or ZoneList Name
  SupplyAirTemperature,                   !- Zone Cooling Design Supply Air Temperature Input Method
  14,                                     !- Zone Cooling Design Supply Air Temperature {C}
  11.11,                                  !- Zone Cooling Design Supply Air Temperature Difference {deltaC}
  SupplyAirTemperature,                   !- Zone Heating Design Supply Air Temperature Input Method
  40,                                     !- Zone Heating Design Supply Air Temperature {C}
  11.11,                                  !- Zone Heating Design Supply Air Temperature Difference {deltaC}
  0.0085,                                 !- Zone Cooling Design Supply Air Humidity Ratio {kg-H2O/kg-air}
  0.008,                                  !- Zone Heating Design Supply Air Humidity Ratio {kg-H2O/kg-air}
  ,                                       !- Zone Heating Sizing Factor
  ,                                       !- Zone Cooling Sizing Factor
  DesignDay,                              !- Cooling Design Air Flow Method
  ,                                       !- Cooling Design Air Flow Rate {m3/s}
  ,                                       !- Cooling Minimum Air Flow per Zone Floor Area {m3/s-m2}
  ,                                       !- Cooling Minimum Air Flow {m3/s}
  ,                                       !- Cooling Minimum Air Flow Fraction
  DesignDay,                              !- Heating Design Air Flow Method
  ,                                       !- Heating Design Air Flow Rate {m3/s}
  ,                                       !- Heating Maximum Air Flow per Zone Floor Area {m3/s-m2}
  ,                                       !- Heating Maximum Air Flow {m3/s}
  ,                                       !- Heating Maximum Air Flow Fraction
  ,                                       !- Design Zone Air Distribution Effectiveness in Cooling Mode
  ,                                       !- Design Zone Air Distribution Effectiveness in Heating Mode
  No,                                     !- Account for Dedicated Outdoor Air System
  NeutralSupplyAir,                       !- Dedicated Outdoor Air System Control Strategy
  autosize,                               !- Dedicated Outdoor Air Low Setpoint Temperature for Design {C}
  autosize;                               !- Dedicated Outdoor Air High Setpoint Temperature for Design {C}

OS:ZoneHVAC:EquipmentList,
  {7fb2adf0-5ff2-4782-98aa-318a91abdc58}, !- Handle
  Zone HVAC Equipment List 1,             !- Name
  {d675ae76-ac4b-4094-abab-89e7fe48886d}; !- Thermal Zone

OS:Space,
  {aa5c7a3f-9c84-489d-8eb7-d6fb7d2e8098}, !- Handle
  living space,                           !- Name
  ,                                       !- Space Type Name
  ,                                       !- Default Construction Set Name
  ,                                       !- Default Schedule Set Name
  ,                                       !- Direction of Relative North {deg}
  ,                                       !- X Origin {m}
  ,                                       !- Y Origin {m}
  ,                                       !- Z Origin {m}
  ,                                       !- Building Story Name
  {d675ae76-ac4b-4094-abab-89e7fe48886d}, !- Thermal Zone Name
  ,                                       !- Part of Total Floor Area
  ,                                       !- Design Specification Outdoor Air Object Name
  {7fe50ce2-b60a-4cca-87a1-8da7e7eb8bee}; !- Building Unit Name

OS:Surface,
  {e344e259-cbfb-494e-93f3-d5a359c73b3f}, !- Handle
  Surface 1,                              !- Name
  Floor,                                  !- Surface Type
  ,                                       !- Construction Name
  {aa5c7a3f-9c84-489d-8eb7-d6fb7d2e8098}, !- Space Name
  Ground,                                 !- Outside Boundary Condition
  ,                                       !- Outside Boundary Condition Object
  NoSun,                                  !- Sun Exposure
  NoWind,                                 !- Wind Exposure
  ,                                       !- View Factor to Ground
  ,                                       !- Number of Vertices
  0, -11.3588643451371, 0,                !- X,Y,Z Vertex 1 {m}
  0, 0, 0,                                !- X,Y,Z Vertex 2 {m}
  6.59383217256854, 0, 0,                 !- X,Y,Z Vertex 3 {m}
  6.59383217256854, -13.1876643451371, 0, !- X,Y,Z Vertex 4 {m}
  1.8288, -13.1876643451371, 0,           !- X,Y,Z Vertex 5 {m}
  1.8288, -11.3588643451371, 0;           !- X,Y,Z Vertex 6 {m}

OS:Surface,
  {ab29cf96-2e69-4aee-9dd0-cca93721c332}, !- Handle
  Surface 2,                              !- Name
  Wall,                                   !- Surface Type
  ,                                       !- Construction Name
  {aa5c7a3f-9c84-489d-8eb7-d6fb7d2e8098}, !- Space Name
  Outdoors,                               !- Outside Boundary Condition
  ,                                       !- Outside Boundary Condition Object
  SunExposed,                             !- Sun Exposure
  WindExposed,                            !- Wind Exposure
  ,                                       !- View Factor to Ground
  ,                                       !- Number of Vertices
  0, 0, 2.4384,                           !- X,Y,Z Vertex 1 {m}
  0, 0, 0,                                !- X,Y,Z Vertex 2 {m}
  0, -11.3588643451371, 0,                !- X,Y,Z Vertex 3 {m}
  0, -11.3588643451371, 2.4384;           !- X,Y,Z Vertex 4 {m}

OS:Surface,
  {0b73bf90-6faf-4e54-ae11-a91042c272e5}, !- Handle
  Surface 3,                              !- Name
  Wall,                                   !- Surface Type
  ,                                       !- Construction Name
  {aa5c7a3f-9c84-489d-8eb7-d6fb7d2e8098}, !- Space Name
  Adiabatic,                              !- Outside Boundary Condition
  ,                                       !- Outside Boundary Condition Object
  NoSun,                                  !- Sun Exposure
  NoWind,                                 !- Wind Exposure
  ,                                       !- View Factor to Ground
  ,                                       !- Number of Vertices
  6.59383217256854, 0, 2.4384,            !- X,Y,Z Vertex 1 {m}
  6.59383217256854, 0, 0,                 !- X,Y,Z Vertex 2 {m}
  0, 0, 0,                                !- X,Y,Z Vertex 3 {m}
  0, 0, 2.4384;                           !- X,Y,Z Vertex 4 {m}

OS:Surface,
  {c6b7ed4a-806e-4f7c-afe3-3363f62799a9}, !- Handle
  Surface 4,                              !- Name
  Wall,                                   !- Surface Type
  ,                                       !- Construction Name
  {aa5c7a3f-9c84-489d-8eb7-d6fb7d2e8098}, !- Space Name
  Surface,                                !- Outside Boundary Condition
  {2def3b36-b31d-4a02-8ce2-9f659c1c164d}, !- Outside Boundary Condition Object
  NoSun,                                  !- Sun Exposure
  NoWind,                                 !- Wind Exposure
  ,                                       !- View Factor to Ground
  ,                                       !- Number of Vertices
  6.59383217256854, -11.3588643451371, 2.4384, !- X,Y,Z Vertex 1 {m}
  6.59383217256854, -11.3588643451371, 0, !- X,Y,Z Vertex 2 {m}
  6.59383217256854, 0, 0,                 !- X,Y,Z Vertex 3 {m}
  6.59383217256854, 0, 2.4384;            !- X,Y,Z Vertex 4 {m}

OS:Surface,
  {12522258-5990-4360-b235-e38d7fd465ab}, !- Handle
  Surface 5,                              !- Name
  Wall,                                   !- Surface Type
  ,                                       !- Construction Name
  {aa5c7a3f-9c84-489d-8eb7-d6fb7d2e8098}, !- Space Name
  Outdoors,                               !- Outside Boundary Condition
  ,                                       !- Outside Boundary Condition Object
  SunExposed,                             !- Sun Exposure
  WindExposed,                            !- Wind Exposure
  ,                                       !- View Factor to Ground
  ,                                       !- Number of Vertices
  1.8288, -13.1876643451371, 2.4384,      !- X,Y,Z Vertex 1 {m}
  1.8288, -13.1876643451371, 0,           !- X,Y,Z Vertex 2 {m}
  6.59383217256854, -13.1876643451371, 0, !- X,Y,Z Vertex 3 {m}
  6.59383217256854, -13.1876643451371, 2.4384; !- X,Y,Z Vertex 4 {m}

OS:Surface,
  {4481287b-7eef-4272-ab60-ab8b8c8e2d2f}, !- Handle
  Surface 6,                              !- Name
  Wall,                                   !- Surface Type
  ,                                       !- Construction Name
  {aa5c7a3f-9c84-489d-8eb7-d6fb7d2e8098}, !- Space Name
  Outdoors,                               !- Outside Boundary Condition
  ,                                       !- Outside Boundary Condition Object
  SunExposed,                             !- Sun Exposure
  WindExposed,                            !- Wind Exposure
  ,                                       !- View Factor to Ground
  ,                                       !- Number of Vertices
  1.8288, -11.3588643451371, 2.4384,      !- X,Y,Z Vertex 1 {m}
  1.8288, -11.3588643451371, 0,           !- X,Y,Z Vertex 2 {m}
  1.8288, -13.1876643451371, 0,           !- X,Y,Z Vertex 3 {m}
  1.8288, -13.1876643451371, 2.4384;      !- X,Y,Z Vertex 4 {m}

OS:Surface,
  {5ce3df9a-fac5-4e41-b245-632939069de5}, !- Handle
  Surface 7,                              !- Name
  Wall,                                   !- Surface Type
  ,                                       !- Construction Name
  {aa5c7a3f-9c84-489d-8eb7-d6fb7d2e8098}, !- Space Name
  Outdoors,                               !- Outside Boundary Condition
  ,                                       !- Outside Boundary Condition Object
  SunExposed,                             !- Sun Exposure
  WindExposed,                            !- Wind Exposure
  ,                                       !- View Factor to Ground
  ,                                       !- Number of Vertices
  0, -11.3588643451371, 2.4384,           !- X,Y,Z Vertex 1 {m}
  0, -11.3588643451371, 0,                !- X,Y,Z Vertex 2 {m}
  1.8288, -11.3588643451371, 0,           !- X,Y,Z Vertex 3 {m}
  1.8288, -11.3588643451371, 2.4384;      !- X,Y,Z Vertex 4 {m}

OS:Surface,
  {75b37456-f49f-4576-825f-74fbd906474f}, !- Handle
  Surface 8,                              !- Name
  RoofCeiling,                            !- Surface Type
  ,                                       !- Construction Name
  {aa5c7a3f-9c84-489d-8eb7-d6fb7d2e8098}, !- Space Name
  Outdoors,                               !- Outside Boundary Condition
  ,                                       !- Outside Boundary Condition Object
  SunExposed,                             !- Sun Exposure
  WindExposed,                            !- Wind Exposure
  ,                                       !- View Factor to Ground
  ,                                       !- Number of Vertices
  1.8288, -11.3588643451371, 2.4384,      !- X,Y,Z Vertex 1 {m}
  1.8288, -13.1876643451371, 2.4384,      !- X,Y,Z Vertex 2 {m}
  6.59383217256854, -13.1876643451371, 2.4384, !- X,Y,Z Vertex 3 {m}
  6.59383217256854, 0, 2.4384,            !- X,Y,Z Vertex 4 {m}
  0, 0, 2.4384,                           !- X,Y,Z Vertex 5 {m}
  0, -11.3588643451371, 2.4384;           !- X,Y,Z Vertex 6 {m}

OS:ThermalZone,
  {ebea5ecc-cc23-4799-b5ce-106c7e1efca3}, !- Handle
  living zone|unit 2,                     !- Name
  ,                                       !- Multiplier
  ,                                       !- Ceiling Height {m}
  ,                                       !- Volume {m3}
  ,                                       !- Floor Area {m2}
  ,                                       !- Zone Inside Convection Algorithm
  ,                                       !- Zone Outside Convection Algorithm
  ,                                       !- Zone Conditioning Equipment List Name
  {2b9aea41-ca00-4d5b-8cb9-1135c183f75b}, !- Zone Air Inlet Port List
  {4d43fd2f-7909-4dc1-a02f-904b91d700f0}, !- Zone Air Exhaust Port List
  {c08828a4-a90c-4869-93e7-89676a4fdecd}, !- Zone Air Node Name
  ,                                       !- Zone Return Air Node Name
  ,                                       !- Primary Daylighting Control Name
  ,                                       !- Fraction of Zone Controlled by Primary Daylighting Control
  ,                                       !- Secondary Daylighting Control Name
  ,                                       !- Fraction of Zone Controlled by Secondary Daylighting Control
  ,                                       !- Illuminance Map Name
  ,                                       !- Group Rendering Name
  ,                                       !- Thermostat Name
  No;                                     !- Use Ideal Air Loads

OS:Node,
  {35215bb3-af64-4685-85e5-d0bfd85cc666}, !- Handle
  Node 2,                                 !- Name
  {c08828a4-a90c-4869-93e7-89676a4fdecd}, !- Inlet Port
  ;                                       !- Outlet Port

OS:Connection,
  {c08828a4-a90c-4869-93e7-89676a4fdecd}, !- Handle
  {0cc0c017-b68a-40fa-84ec-df6ad1c2f99b}, !- Name
  {ebea5ecc-cc23-4799-b5ce-106c7e1efca3}, !- Source Object
  11,                                     !- Outlet Port
  {35215bb3-af64-4685-85e5-d0bfd85cc666}, !- Target Object
  2;                                      !- Inlet Port

OS:PortList,
  {2b9aea41-ca00-4d5b-8cb9-1135c183f75b}, !- Handle
  {c69896db-9fd0-4924-b4ba-41f01275abc5}, !- Name
  {ebea5ecc-cc23-4799-b5ce-106c7e1efca3}; !- HVAC Component

OS:PortList,
  {4d43fd2f-7909-4dc1-a02f-904b91d700f0}, !- Handle
  {8b180cc5-3568-4b5a-9693-cc7a38c40a88}, !- Name
  {ebea5ecc-cc23-4799-b5ce-106c7e1efca3}; !- HVAC Component

OS:Sizing:Zone,
  {4aca3c41-0b1b-47bf-a11f-16d83678d5c0}, !- Handle
  {ebea5ecc-cc23-4799-b5ce-106c7e1efca3}, !- Zone or ZoneList Name
  SupplyAirTemperature,                   !- Zone Cooling Design Supply Air Temperature Input Method
  14,                                     !- Zone Cooling Design Supply Air Temperature {C}
  11.11,                                  !- Zone Cooling Design Supply Air Temperature Difference {deltaC}
  SupplyAirTemperature,                   !- Zone Heating Design Supply Air Temperature Input Method
  40,                                     !- Zone Heating Design Supply Air Temperature {C}
  11.11,                                  !- Zone Heating Design Supply Air Temperature Difference {deltaC}
  0.0085,                                 !- Zone Cooling Design Supply Air Humidity Ratio {kg-H2O/kg-air}
  0.008,                                  !- Zone Heating Design Supply Air Humidity Ratio {kg-H2O/kg-air}
  ,                                       !- Zone Heating Sizing Factor
  ,                                       !- Zone Cooling Sizing Factor
  DesignDay,                              !- Cooling Design Air Flow Method
  ,                                       !- Cooling Design Air Flow Rate {m3/s}
  ,                                       !- Cooling Minimum Air Flow per Zone Floor Area {m3/s-m2}
  ,                                       !- Cooling Minimum Air Flow {m3/s}
  ,                                       !- Cooling Minimum Air Flow Fraction
  DesignDay,                              !- Heating Design Air Flow Method
  ,                                       !- Heating Design Air Flow Rate {m3/s}
  ,                                       !- Heating Maximum Air Flow per Zone Floor Area {m3/s-m2}
  ,                                       !- Heating Maximum Air Flow {m3/s}
  ,                                       !- Heating Maximum Air Flow Fraction
  ,                                       !- Design Zone Air Distribution Effectiveness in Cooling Mode
  ,                                       !- Design Zone Air Distribution Effectiveness in Heating Mode
  No,                                     !- Account for Dedicated Outdoor Air System
  NeutralSupplyAir,                       !- Dedicated Outdoor Air System Control Strategy
  autosize,                               !- Dedicated Outdoor Air Low Setpoint Temperature for Design {C}
  autosize;                               !- Dedicated Outdoor Air High Setpoint Temperature for Design {C}

OS:ZoneHVAC:EquipmentList,
  {1e85d246-4ecb-4725-b05f-b0e49f59eb65}, !- Handle
  Zone HVAC Equipment List 2,             !- Name
  {ebea5ecc-cc23-4799-b5ce-106c7e1efca3}; !- Thermal Zone

OS:Space,
  {000456a5-dd36-41d0-b6f9-827395ef2bfa}, !- Handle
  living space|unit 2,                    !- Name
  ,                                       !- Space Type Name
  ,                                       !- Default Construction Set Name
  ,                                       !- Default Schedule Set Name
  ,                                       !- Direction of Relative North {deg}
  ,                                       !- X Origin {m}
  ,                                       !- Y Origin {m}
  ,                                       !- Z Origin {m}
  ,                                       !- Building Story Name
  {ebea5ecc-cc23-4799-b5ce-106c7e1efca3}, !- Thermal Zone Name
  ,                                       !- Part of Total Floor Area
  ,                                       !- Design Specification Outdoor Air Object Name
  {b154d0c4-a590-47f0-a9b6-befed56a62dc}; !- Building Unit Name

OS:Surface,
  {2d475e37-97db-4dbb-a216-ded621498f98}, !- Handle
  Surface 9,                              !- Name
  Floor,                                  !- Surface Type
  ,                                       !- Construction Name
  {000456a5-dd36-41d0-b6f9-827395ef2bfa}, !- Space Name
  Ground,                                 !- Outside Boundary Condition
  ,                                       !- Outside Boundary Condition Object
  NoSun,                                  !- Sun Exposure
  NoWind,                                 !- Wind Exposure
  ,                                       !- View Factor to Ground
  ,                                       !- Number of Vertices
  0, 3.048, 0,                            !- X,Y,Z Vertex 1 {m}
  0, 16.2356643451371, 0,                 !- X,Y,Z Vertex 2 {m}
  4.76503217256854, 16.2356643451371, 0,  !- X,Y,Z Vertex 3 {m}
  4.76503217256854, 14.4068643451371, 0,  !- X,Y,Z Vertex 4 {m}
  6.59383217256854, 14.4068643451371, 0,  !- X,Y,Z Vertex 5 {m}
  6.59383217256854, 3.048, 0;             !- X,Y,Z Vertex 6 {m}

OS:Surface,
  {ede6191e-7da4-4d66-8abc-062a11babea0}, !- Handle
  Surface 10,                             !- Name
  Wall,                                   !- Surface Type
  ,                                       !- Construction Name
  {000456a5-dd36-41d0-b6f9-827395ef2bfa}, !- Space Name
  Outdoors,                               !- Outside Boundary Condition
  ,                                       !- Outside Boundary Condition Object
  SunExposed,                             !- Sun Exposure
  WindExposed,                            !- Wind Exposure
  ,                                       !- View Factor to Ground
  ,                                       !- Number of Vertices
  0, 16.2356643451371, 2.4384,            !- X,Y,Z Vertex 1 {m}
  0, 16.2356643451371, 0,                 !- X,Y,Z Vertex 2 {m}
  0, 3.048, 0,                            !- X,Y,Z Vertex 3 {m}
  0, 3.048, 2.4384;                       !- X,Y,Z Vertex 4 {m}

OS:Surface,
  {7543050f-19aa-4024-84e8-4c580c614628}, !- Handle
  Surface 11,                             !- Name
  Wall,                                   !- Surface Type
  ,                                       !- Construction Name
  {000456a5-dd36-41d0-b6f9-827395ef2bfa}, !- Space Name
  Outdoors,                               !- Outside Boundary Condition
  ,                                       !- Outside Boundary Condition Object
  SunExposed,                             !- Sun Exposure
  WindExposed,                            !- Wind Exposure
  ,                                       !- View Factor to Ground
  ,                                       !- Number of Vertices
  4.76503217256854, 16.2356643451371, 2.4384, !- X,Y,Z Vertex 1 {m}
  4.76503217256854, 16.2356643451371, 0,  !- X,Y,Z Vertex 2 {m}
  0, 16.2356643451371, 0,                 !- X,Y,Z Vertex 3 {m}
  0, 16.2356643451371, 2.4384;            !- X,Y,Z Vertex 4 {m}

OS:Surface,
  {df55dac6-dd92-411b-8461-9b3a75c05125}, !- Handle
  Surface 12,                             !- Name
  Wall,                                   !- Surface Type
  ,                                       !- Construction Name
  {000456a5-dd36-41d0-b6f9-827395ef2bfa}, !- Space Name
  Outdoors,                               !- Outside Boundary Condition
  ,                                       !- Outside Boundary Condition Object
  SunExposed,                             !- Sun Exposure
  WindExposed,                            !- Wind Exposure
  ,                                       !- View Factor to Ground
  ,                                       !- Number of Vertices
  4.76503217256854, 14.4068643451371, 2.4384, !- X,Y,Z Vertex 1 {m}
  4.76503217256854, 14.4068643451371, 0,  !- X,Y,Z Vertex 2 {m}
  4.76503217256854, 16.2356643451371, 0,  !- X,Y,Z Vertex 3 {m}
  4.76503217256854, 16.2356643451371, 2.4384; !- X,Y,Z Vertex 4 {m}

OS:Surface,
  {3eb2e020-4c90-4cf8-b6b9-448175661880}, !- Handle
  Surface 13,                             !- Name
  Wall,                                   !- Surface Type
  ,                                       !- Construction Name
  {000456a5-dd36-41d0-b6f9-827395ef2bfa}, !- Space Name
  Outdoors,                               !- Outside Boundary Condition
  ,                                       !- Outside Boundary Condition Object
  SunExposed,                             !- Sun Exposure
  WindExposed,                            !- Wind Exposure
  ,                                       !- View Factor to Ground
  ,                                       !- Number of Vertices
  6.59383217256854, 14.4068643451371, 2.4384, !- X,Y,Z Vertex 1 {m}
  6.59383217256854, 14.4068643451371, 0,  !- X,Y,Z Vertex 2 {m}
  4.76503217256854, 14.4068643451371, 0,  !- X,Y,Z Vertex 3 {m}
  4.76503217256854, 14.4068643451371, 2.4384; !- X,Y,Z Vertex 4 {m}

OS:Surface,
  {e0f7069f-231b-41b6-a1fc-3157f201ed55}, !- Handle
  Surface 14,                             !- Name
  Wall,                                   !- Surface Type
  ,                                       !- Construction Name
  {000456a5-dd36-41d0-b6f9-827395ef2bfa}, !- Space Name
  Surface,                                !- Outside Boundary Condition
  {7b6c2f2d-dc9e-4d07-b8d2-9d0183e7b7ec}, !- Outside Boundary Condition Object
  NoSun,                                  !- Sun Exposure
  NoWind,                                 !- Wind Exposure
  ,                                       !- View Factor to Ground
  ,                                       !- Number of Vertices
  6.59383217256854, 3.048, 2.4384,        !- X,Y,Z Vertex 1 {m}
  6.59383217256854, 3.048, 0,             !- X,Y,Z Vertex 2 {m}
  6.59383217256854, 14.4068643451371, 0,  !- X,Y,Z Vertex 3 {m}
  6.59383217256854, 14.4068643451371, 2.4384; !- X,Y,Z Vertex 4 {m}

OS:Surface,
  {c09397c1-e87f-4463-bdf3-96961709f55b}, !- Handle
  Surface 15,                             !- Name
  Wall,                                   !- Surface Type
  ,                                       !- Construction Name
  {000456a5-dd36-41d0-b6f9-827395ef2bfa}, !- Space Name