!- NOTE: Auto-generated from /test/osw_files/MF_8units_1story_SL_Inset.osw

OS:Version,
  {dec054c3-0be9-4a90-9545-fee9c55c0edc}, !- Handle
  2.4.0;                                  !- Version Identifier

OS:Building,
  {bf305633-c5a1-4881-9edf-ca5e1a8e1274}, !- Handle
  Building,                               !- Name
  ,                                       !- Building Sector Type
  ,                                       !- North Axis {deg}
  ,                                       !- Nominal Floor to Floor Height {m}
  ,                                       !- Space Type Name
  ,                                       !- Default Construction Set Name
  ,                                       !- Default Schedule Set Name
  1,                                      !- Standards Number of Stories
  1,                                      !- Standards Number of Above Ground Stories
  multifamily,                            !- Standards Building Type
  8;                                      !- Standards Number of Living Units

OS:YearDescription,
  {513d8dda-86cb-442a-b01c-1f7f0e0ac70e}; !- Handle

OS:SimulationControl,
  {2c487a4c-bac9-4ac5-b669-1e49d9da7c2b}, !- Handle
  ,                                       !- Do Zone Sizing Calculation
  ,                                       !- Do System Sizing Calculation
  ,                                       !- Do Plant Sizing Calculation
  No,                                     !- Run Simulation for Sizing Periods
  ;                                       !- Run Simulation for Weather File Run Periods

OS:Timestep,
  {4ebc9f1e-4707-402e-9844-67eb1ffbd522}, !- Handle
  6;                                      !- Number of Timesteps per Hour

OS:RunPeriod,
  {28df894d-6af9-4fb8-8f56-df1753344aa3}, !- Handle
  Run Period,                             !- Name
  1,                                      !- Begin Month
  1,                                      !- Begin Day of Month
  12,                                     !- End Month
  31,                                     !- End Day of Month
  ,                                       !- Use Weather File Holidays and Special Days
  ,                                       !- Use Weather File Daylight Saving Period
  ,                                       !- Apply Weekend Holiday Rule
  ,                                       !- Use Weather File Rain Indicators
  ,                                       !- Use Weather File Snow Indicators
  ;                                       !- Number of Times Runperiod to be Repeated

OS:Sizing:Parameters,
  {dde5af6f-7923-4600-a28a-7556673a0266}, !- Handle
  1.0,                                    !- Heating Sizing Factor
  1.0;                                    !- Cooling Sizing Factor

OS:ShadowCalculation,
  {ca758bea-4416-4626-9bba-3d8795c79bd6}, !- Handle
  20,                                     !- Calculation Frequency
  200;                                    !- Maximum Figures in Shadow Overlap Calculations

OS:SurfaceConvectionAlgorithm:Inside,
  {aaabfc36-718a-4ab0-b622-f186ebb45230}, !- Handle
  TARP;                                   !- Algorithm

OS:SurfaceConvectionAlgorithm:Outside,
  {9a0a9f6f-4bbd-4b12-a121-9492a1fcd7d6}, !- Handle
  DOE-2;                                  !- Algorithm

OS:HeatBalanceAlgorithm,
  {9d93e563-e1e0-46d7-9e39-d1c8aceb7212}, !- Handle
  ConductionTransferFunction,             !- Algorithm
  200;                                    !- Surface Temperature Upper Limit {C}

OS:ZoneCapacitanceMultiplier:ResearchSpecial,
  {6bfced16-b16f-47f6-8223-f7e267d75d19}, !- Handle
  ,                                       !- Temperature Capacity Multiplier
  15,                                     !- Humidity Capacity Multiplier
  ;                                       !- Carbon Dioxide Capacity Multiplier

OS:ThermalZone,
  {c48ff421-386d-444b-9046-5e06612ded02}, !- Handle
  living zone,                            !- Name
  ,                                       !- Multiplier
  ,                                       !- Ceiling Height {m}
  ,                                       !- Volume {m3}
  ,                                       !- Floor Area {m2}
  ,                                       !- Zone Inside Convection Algorithm
  ,                                       !- Zone Outside Convection Algorithm
  ,                                       !- Zone Conditioning Equipment List Name
  {6de986b8-3cc5-4617-9f70-b4242f2841b7}, !- Zone Air Inlet Port List
  {b3137be4-962f-4383-8908-fde10c9e7ba5}, !- Zone Air Exhaust Port List
  {f59bd2b2-e975-40d7-baa0-879408a93c05}, !- Zone Air Node Name
  ,                                       !- Zone Return Air Node Name
  ,                                       !- Primary Daylighting Control Name
  ,                                       !- Fraction of Zone Controlled by Primary Daylighting Control
  ,                                       !- Secondary Daylighting Control Name
  ,                                       !- Fraction of Zone Controlled by Secondary Daylighting Control
  ,                                       !- Illuminance Map Name
  ,                                       !- Group Rendering Name
  ,                                       !- Thermostat Name
  No;                                     !- Use Ideal Air Loads

OS:Node,
  {b1a3da36-defc-4483-a26b-43bc573dddb5}, !- Handle
  Node 1,                                 !- Name
  {f59bd2b2-e975-40d7-baa0-879408a93c05}, !- Inlet Port
  ;                                       !- Outlet Port

OS:Connection,
  {f59bd2b2-e975-40d7-baa0-879408a93c05}, !- Handle
  {faf0bbdd-6dd6-4c9b-a7ce-49bc0fe92c28}, !- Name
  {c48ff421-386d-444b-9046-5e06612ded02}, !- Source Object
  11,                                     !- Outlet Port
  {b1a3da36-defc-4483-a26b-43bc573dddb5}, !- Target Object
  2;                                      !- Inlet Port

OS:PortList,
  {6de986b8-3cc5-4617-9f70-b4242f2841b7}, !- Handle
  {36864955-7d23-41fb-9d12-3bbbc6708044}, !- Name
  {c48ff421-386d-444b-9046-5e06612ded02}; !- HVAC Component

OS:PortList,
  {b3137be4-962f-4383-8908-fde10c9e7ba5}, !- Handle
  {7257e416-3dcf-4e35-b615-05f85fa41c08}, !- Name
  {c48ff421-386d-444b-9046-5e06612ded02}; !- HVAC Component

OS:Sizing:Zone,
  {5cf42703-bede-4f77-8216-98b162f69c64}, !- Handle
  {c48ff421-386d-444b-9046-5e06612ded02}, !- Zone or ZoneList Name
  SupplyAirTemperature,                   !- Zone Cooling Design Supply Air Temperature Input Method
  14,                                     !- Zone Cooling Design Supply Air Temperature {C}
  11.11,                                  !- Zone Cooling Design Supply Air Temperature Difference {deltaC}
  SupplyAirTemperature,                   !- Zone Heating Design Supply Air Temperature Input Method
  40,                                     !- Zone Heating Design Supply Air Temperature {C}
  11.11,                                  !- Zone Heating Design Supply Air Temperature Difference {deltaC}
  0.0085,                                 !- Zone Cooling Design Supply Air Humidity Ratio {kg-H2O/kg-air}
  0.008,                                  !- Zone Heating Design Supply Air Humidity Ratio {kg-H2O/kg-air}
  ,                                       !- Zone Heating Sizing Factor
  ,                                       !- Zone Cooling Sizing Factor
  DesignDay,                              !- Cooling Design Air Flow Method
  ,                                       !- Cooling Design Air Flow Rate {m3/s}
  ,                                       !- Cooling Minimum Air Flow per Zone Floor Area {m3/s-m2}
  ,                                       !- Cooling Minimum Air Flow {m3/s}
  ,                                       !- Cooling Minimum Air Flow Fraction
  DesignDay,                              !- Heating Design Air Flow Method
  ,                                       !- Heating Design Air Flow Rate {m3/s}
  ,                                       !- Heating Maximum Air Flow per Zone Floor Area {m3/s-m2}
  ,                                       !- Heating Maximum Air Flow {m3/s}
  ,                                       !- Heating Maximum Air Flow Fraction
  ,                                       !- Design Zone Air Distribution Effectiveness in Cooling Mode
  ,                                       !- Design Zone Air Distribution Effectiveness in Heating Mode
  No,                                     !- Account for Dedicated Outdoor Air System
  NeutralSupplyAir,                       !- Dedicated Outdoor Air System Control Strategy
  autosize,                               !- Dedicated Outdoor Air Low Setpoint Temperature for Design {C}
  autosize;                               !- Dedicated Outdoor Air High Setpoint Temperature for Design {C}

OS:ZoneHVAC:EquipmentList,
  {3523759b-3871-43bf-8aff-1dcafc33c453}, !- Handle
  Zone HVAC Equipment List 1,             !- Name
  {c48ff421-386d-444b-9046-5e06612ded02}; !- Thermal Zone

OS:Space,
  {1fc5fcd7-df9c-4607-b64d-de4fcab536a0}, !- Handle
  living space,                           !- Name
  ,                                       !- Space Type Name
  ,                                       !- Default Construction Set Name
  ,                                       !- Default Schedule Set Name
  ,                                       !- Direction of Relative North {deg}
  ,                                       !- X Origin {m}
  ,                                       !- Y Origin {m}
  ,                                       !- Z Origin {m}
  ,                                       !- Building Story Name
  {c48ff421-386d-444b-9046-5e06612ded02}, !- Thermal Zone Name
  ,                                       !- Part of Total Floor Area
  ,                                       !- Design Specification Outdoor Air Object Name
  {58014a79-0972-4268-90cc-2e3292859947}; !- Building Unit Name

OS:Surface,
  {6e8b7910-adef-46d0-aa8f-99dc42e20448}, !- Handle
  Surface 1,                              !- Name
  Floor,                                  !- Surface Type
  ,                                       !- Construction Name
  {1fc5fcd7-df9c-4607-b64d-de4fcab536a0}, !- Space Name
  Ground,                                 !- Outside Boundary Condition
  ,                                       !- Outside Boundary Condition Object
  NoSun,                                  !- Sun Exposure
  NoWind,                                 !- Wind Exposure
  ,                                       !- View Factor to Ground
  ,                                       !- Number of Vertices
  0, -13.1876643451371, 0,                !- X,Y,Z Vertex 1 {m}
  0, 0, 0,                                !- X,Y,Z Vertex 2 {m}
  6.59383217256854, 0, 0,                 !- X,Y,Z Vertex 3 {m}
  6.59383217256854, -11.3588643451371, 0, !- X,Y,Z Vertex 4 {m}
  4.76503217256854, -11.3588643451371, 0, !- X,Y,Z Vertex 5 {m}
  4.76503217256854, -13.1876643451371, 0; !- X,Y,Z Vertex 6 {m}

OS:Surface,
  {64d1fab2-64f4-408b-aafc-2160b25f33ca}, !- Handle
  Surface 2,                              !- Name
  Wall,                                   !- Surface Type
  ,                                       !- Construction Name
  {1fc5fcd7-df9c-4607-b64d-de4fcab536a0}, !- Space Name
  Outdoors,                               !- Outside Boundary Condition
  ,                                       !- Outside Boundary Condition Object
  SunExposed,                             !- Sun Exposure
  WindExposed,                            !- Wind Exposure
  ,                                       !- View Factor to Ground
  ,                                       !- Number of Vertices
  0, 0, 2.4384,                           !- X,Y,Z Vertex 1 {m}
  0, 0, 0,                                !- X,Y,Z Vertex 2 {m}
  0, -13.1876643451371, 0,                !- X,Y,Z Vertex 3 {m}
  0, -13.1876643451371, 2.4384;           !- X,Y,Z Vertex 4 {m}

OS:Surface,
  {0020012f-5b0b-4e14-9e43-cc1c3dffb82f}, !- Handle
  Surface 3,                              !- Name
  Wall,                                   !- Surface Type
  ,                                       !- Construction Name
  {1fc5fcd7-df9c-4607-b64d-de4fcab536a0}, !- Space Name
  Adiabatic,                              !- Outside Boundary Condition
  ,                                       !- Outside Boundary Condition Object
  NoSun,                                  !- Sun Exposure
  NoWind,                                 !- Wind Exposure
  ,                                       !- View Factor to Ground
  ,                                       !- Number of Vertices
  6.59383217256854, 0, 2.4384,            !- X,Y,Z Vertex 1 {m}
  6.59383217256854, 0, 0,                 !- X,Y,Z Vertex 2 {m}
  0, 0, 0,                                !- X,Y,Z Vertex 3 {m}
  0, 0, 2.4384;                           !- X,Y,Z Vertex 4 {m}

OS:Surface,
  {57bbeb7d-76c1-43ff-85b0-ca8d54079607}, !- Handle
  Surface 4,                              !- Name
  Wall,                                   !- Surface Type
  ,                                       !- Construction Name
  {1fc5fcd7-df9c-4607-b64d-de4fcab536a0}, !- Space Name
  Surface,                                !- Outside Boundary Condition
  {6cbd976b-5efd-457e-bc06-4e78a65091ac}, !- Outside Boundary Condition Object
  NoSun,                                  !- Sun Exposure
  NoWind,                                 !- Wind Exposure
  ,                                       !- View Factor to Ground
  ,                                       !- Number of Vertices
  6.59383217256854, -11.3588643451371, 2.4384, !- X,Y,Z Vertex 1 {m}
  6.59383217256854, -11.3588643451371, 0, !- X,Y,Z Vertex 2 {m}
  6.59383217256854, 0, 0,                 !- X,Y,Z Vertex 3 {m}
  6.59383217256854, 0, 2.4384;            !- X,Y,Z Vertex 4 {m}

OS:Surface,
  {9c4a2485-9582-47d1-8730-96e12775f58b}, !- Handle
  Surface 5,                              !- Name
  Wall,                                   !- Surface Type
  ,                                       !- Construction Name
  {1fc5fcd7-df9c-4607-b64d-de4fcab536a0}, !- Space Name
  Outdoors,                               !- Outside Boundary Condition
  ,                                       !- Outside Boundary Condition Object
  SunExposed,                             !- Sun Exposure
  WindExposed,                            !- Wind Exposure
  ,                                       !- View Factor to Ground
  ,                                       !- Number of Vertices
  4.76503217256854, -11.3588643451371, 2.4384, !- X,Y,Z Vertex 1 {m}
  4.76503217256854, -11.3588643451371, 0, !- X,Y,Z Vertex 2 {m}
  6.59383217256854, -11.3588643451371, 0, !- X,Y,Z Vertex 3 {m}
  6.59383217256854, -11.3588643451371, 2.4384; !- X,Y,Z Vertex 4 {m}

OS:Surface,
  {7b7e14d0-82d0-44a2-898b-8164d74b7359}, !- Handle
  Surface 6,                              !- Name
  Wall,                                   !- Surface Type
  ,                                       !- Construction Name
  {1fc5fcd7-df9c-4607-b64d-de4fcab536a0}, !- Space Name
  Outdoors,                               !- Outside Boundary Condition
  ,                                       !- Outside Boundary Condition Object
  SunExposed,                             !- Sun Exposure
  WindExposed,                            !- Wind Exposure
  ,                                       !- View Factor to Ground
  ,                                       !- Number of Vertices
  4.76503217256854, -13.1876643451371, 2.4384, !- X,Y,Z Vertex 1 {m}
  4.76503217256854, -13.1876643451371, 0, !- X,Y,Z Vertex 2 {m}
  4.76503217256854, -11.3588643451371, 0, !- X,Y,Z Vertex 3 {m}
  4.76503217256854, -11.3588643451371, 2.4384; !- X,Y,Z Vertex 4 {m}

OS:Surface,
  {639e07f6-3bd4-4491-a766-cb58e0afb6d9}, !- Handle
  Surface 7,                              !- Name
  Wall,                                   !- Surface Type
  ,                                       !- Construction Name
  {1fc5fcd7-df9c-4607-b64d-de4fcab536a0}, !- Space Name
  Outdoors,                               !- Outside Boundary Condition
  ,                                       !- Outside Boundary Condition Object
  SunExposed,                             !- Sun Exposure
  WindExposed,                            !- Wind Exposure
  ,                                       !- View Factor to Ground
  ,                                       !- Number of Vertices
  0, -13.1876643451371, 2.4384,           !- X,Y,Z Vertex 1 {m}
  0, -13.1876643451371, 0,                !- X,Y,Z Vertex 2 {m}
  4.76503217256854, -13.1876643451371, 0, !- X,Y,Z Vertex 3 {m}
  4.76503217256854, -13.1876643451371, 2.4384; !- X,Y,Z Vertex 4 {m}

OS:Surface,
  {34608fe9-98ec-4ed8-bd1b-778e516f0eec}, !- Handle
  Surface 8,                              !- Name
  RoofCeiling,                            !- Surface Type
  ,                                       !- Construction Name
  {1fc5fcd7-df9c-4607-b64d-de4fcab536a0}, !- Space Name
  Outdoors,                               !- Outside Boundary Condition
  ,                                       !- Outside Boundary Condition Object
  SunExposed,                             !- Sun Exposure
  WindExposed,                            !- Wind Exposure
  ,                                       !- View Factor to Ground
  ,                                       !- Number of Vertices
  4.76503217256854, -13.1876643451371, 2.4384, !- X,Y,Z Vertex 1 {m}
  4.76503217256854, -11.3588643451371, 2.4384, !- X,Y,Z Vertex 2 {m}
  6.59383217256854, -11.3588643451371, 2.4384, !- X,Y,Z Vertex 3 {m}
  6.59383217256854, 0, 2.4384,            !- X,Y,Z Vertex 4 {m}
  0, 0, 2.4384,                           !- X,Y,Z Vertex 5 {m}
  0, -13.1876643451371, 2.4384;           !- X,Y,Z Vertex 6 {m}

OS:ThermalZone,
  {1b45909a-c698-4463-a3cd-1a34b740af41}, !- Handle
  living zone|unit 2,                     !- Name
  ,                                       !- Multiplier
  ,                                       !- Ceiling Height {m}
  ,                                       !- Volume {m3}
  ,                                       !- Floor Area {m2}
  ,                                       !- Zone Inside Convection Algorithm
  ,                                       !- Zone Outside Convection Algorithm
  ,                                       !- Zone Conditioning Equipment List Name
  {e7a95540-e5b3-4856-8d7b-6b5b8b672b54}, !- Zone Air Inlet Port List
  {81398adb-b1ec-4ff7-b92e-2ebae2b9b867}, !- Zone Air Exhaust Port List
  {26df5e1e-da73-4650-b794-41a95b706936}, !- Zone Air Node Name
  ,                                       !- Zone Return Air Node Name
  ,                                       !- Primary Daylighting Control Name
  ,                                       !- Fraction of Zone Controlled by Primary Daylighting Control
  ,                                       !- Secondary Daylighting Control Name
  ,                                       !- Fraction of Zone Controlled by Secondary Daylighting Control
  ,                                       !- Illuminance Map Name
  ,                                       !- Group Rendering Name
  ,                                       !- Thermostat Name
  No;                                     !- Use Ideal Air Loads

OS:Node,
  {1657fef8-1685-4de6-8b1a-90ff1f422b69}, !- Handle
  Node 2,                                 !- Name
  {26df5e1e-da73-4650-b794-41a95b706936}, !- Inlet Port
  ;                                       !- Outlet Port

OS:Connection,
  {26df5e1e-da73-4650-b794-41a95b706936}, !- Handle
  {05866c43-ffe1-40d9-8ee6-b8f1c8d1cb45}, !- Name
  {1b45909a-c698-4463-a3cd-1a34b740af41}, !- Source Object
  11,                                     !- Outlet Port
  {1657fef8-1685-4de6-8b1a-90ff1f422b69}, !- Target Object
  2;                                      !- Inlet Port

OS:PortList,
  {e7a95540-e5b3-4856-8d7b-6b5b8b672b54}, !- Handle
  {67fc2abc-f05e-448c-9bc9-1d8a4c788930}, !- Name
  {1b45909a-c698-4463-a3cd-1a34b740af41}; !- HVAC Component

OS:PortList,
  {81398adb-b1ec-4ff7-b92e-2ebae2b9b867}, !- Handle
  {4cd49d41-d1b7-45ea-b171-7d4a65a4528b}, !- Name
  {1b45909a-c698-4463-a3cd-1a34b740af41}; !- HVAC Component

OS:Sizing:Zone,
  {28c75f75-2b38-477a-a914-0de073a36e94}, !- Handle
  {1b45909a-c698-4463-a3cd-1a34b740af41}, !- Zone or ZoneList Name
  SupplyAirTemperature,                   !- Zone Cooling Design Supply Air Temperature Input Method
  14,                                     !- Zone Cooling Design Supply Air Temperature {C}
  11.11,                                  !- Zone Cooling Design Supply Air Temperature Difference {deltaC}
  SupplyAirTemperature,                   !- Zone Heating Design Supply Air Temperature Input Method
  40,                                     !- Zone Heating Design Supply Air Temperature {C}
  11.11,                                  !- Zone Heating Design Supply Air Temperature Difference {deltaC}
  0.0085,                                 !- Zone Cooling Design Supply Air Humidity Ratio {kg-H2O/kg-air}
  0.008,                                  !- Zone Heating Design Supply Air Humidity Ratio {kg-H2O/kg-air}
  ,                                       !- Zone Heating Sizing Factor
  ,                                       !- Zone Cooling Sizing Factor
  DesignDay,                              !- Cooling Design Air Flow Method
  ,                                       !- Cooling Design Air Flow Rate {m3/s}
  ,                                       !- Cooling Minimum Air Flow per Zone Floor Area {m3/s-m2}
  ,                                       !- Cooling Minimum Air Flow {m3/s}
  ,                                       !- Cooling Minimum Air Flow Fraction
  DesignDay,                              !- Heating Design Air Flow Method
  ,                                       !- Heating Design Air Flow Rate {m3/s}
  ,                                       !- Heating Maximum Air Flow per Zone Floor Area {m3/s-m2}
  ,                                       !- Heating Maximum Air Flow {m3/s}
  ,                                       !- Heating Maximum Air Flow Fraction
  ,                                       !- Design Zone Air Distribution Effectiveness in Cooling Mode
  ,                                       !- Design Zone Air Distribution Effectiveness in Heating Mode
  No,                                     !- Account for Dedicated Outdoor Air System
  NeutralSupplyAir,                       !- Dedicated Outdoor Air System Control Strategy
  autosize,                               !- Dedicated Outdoor Air Low Setpoint Temperature for Design {C}
  autosize;                               !- Dedicated Outdoor Air High Setpoint Temperature for Design {C}

OS:ZoneHVAC:EquipmentList,
  {5c917f49-8a5f-4ce5-8fac-1fd890086f08}, !- Handle
  Zone HVAC Equipment List 2,             !- Name
  {1b45909a-c698-4463-a3cd-1a34b740af41}; !- Thermal Zone

OS:Space,
  {fe801064-00dd-44ba-8821-0c4f42c4b838}, !- Handle
  living space|unit 2,                    !- Name
  ,                                       !- Space Type Name
  ,                                       !- Default Construction Set Name
  ,                                       !- Default Schedule Set Name
  ,                                       !- Direction of Relative North {deg}
  ,                                       !- X Origin {m}
  ,                                       !- Y Origin {m}
  ,                                       !- Z Origin {m}
  ,                                       !- Building Story Name
  {1b45909a-c698-4463-a3cd-1a34b740af41}, !- Thermal Zone Name
  ,                                       !- Part of Total Floor Area
  ,                                       !- Design Specification Outdoor Air Object Name
  {9d407af5-f232-4c73-bc28-20c76700a222}; !- Building Unit Name

OS:Surface,
  {8d31b224-1aee-40b8-8927-a26c65cb889e}, !- Handle
  Surface 9,                              !- Name
  Floor,                                  !- Surface Type
  ,                                       !- Construction Name
  {fe801064-00dd-44ba-8821-0c4f42c4b838}, !- Space Name
  Ground,                                 !- Outside Boundary Condition
  ,                                       !- Outside Boundary Condition Object
  NoSun,                                  !- Sun Exposure
  NoWind,                                 !- Wind Exposure
  ,                                       !- View Factor to Ground
  ,                                       !- Number of Vertices
  0, 14.4068643451371, 0,                 !- X,Y,Z Vertex 1 {m}
  1.8288, 14.4068643451371, 0,            !- X,Y,Z Vertex 2 {m}
  1.8288, 16.2356643451371, 0,            !- X,Y,Z Vertex 3 {m}
  6.59383217256854, 16.2356643451371, 0,  !- X,Y,Z Vertex 4 {m}
  6.59383217256854, 3.048, 0,             !- X,Y,Z Vertex 5 {m}
  0, 3.048, 0;                            !- X,Y,Z Vertex 6 {m}

OS:Surface,
  {73146876-563f-49bd-92ac-8f9f9c6522fb}, !- Handle
  Surface 10,                             !- Name
  Wall,                                   !- Surface Type
  ,                                       !- Construction Name
  {fe801064-00dd-44ba-8821-0c4f42c4b838}, !- Space Name
  Outdoors,                               !- Outside Boundary Condition
  ,                                       !- Outside Boundary Condition Object
  SunExposed,                             !- Sun Exposure
  WindExposed,                            !- Wind Exposure
  ,                                       !- View Factor to Ground
  ,                                       !- Number of Vertices
  1.8288, 14.4068643451371, 2.4384,       !- X,Y,Z Vertex 1 {m}
  1.8288, 14.4068643451371, 0,            !- X,Y,Z Vertex 2 {m}
  0, 14.4068643451371, 0,                 !- X,Y,Z Vertex 3 {m}
  0, 14.4068643451371, 2.4384;            !- X,Y,Z Vertex 4 {m}

OS:Surface,
  {fcbaeafb-6a0f-4d5f-a3fe-8d06d7719b69}, !- Handle
  Surface 11,                             !- Name
  Wall,                                   !- Surface Type
  ,                                       !- Construction Name
  {fe801064-00dd-44ba-8821-0c4f42c4b838}, !- Space Name
  Outdoors,                               !- Outside Boundary Condition
  ,                                       !- Outside Boundary Condition Object
  SunExposed,                             !- Sun Exposure
  WindExposed,                            !- Wind Exposure
  ,                                       !- View Factor to Ground
  ,                                       !- Number of Vertices
  1.8288, 16.2356643451371, 2.4384,       !- X,Y,Z Vertex 1 {m}
  1.8288, 16.2356643451371, 0,            !- X,Y,Z Vertex 2 {m}
  1.8288, 14.4068643451371, 0,            !- X,Y,Z Vertex 3 {m}
  1.8288, 14.4068643451371, 2.4384;       !- X,Y,Z Vertex 4 {m}

OS:Surface,
  {bef2425f-f904-4a88-a7ec-76a856134c66}, !- Handle
  Surface 12,                             !- Name
  Wall,                                   !- Surface Type
  ,                                       !- Construction Name
  {fe801064-00dd-44ba-8821-0c4f42c4b838}, !- Space Name
  Outdoors,                               !- Outside Boundary Condition
  ,                                       !- Outside Boundary Condition Object
  SunExposed,                             !- Sun Exposure
  WindExposed,                            !- Wind Exposure
  ,                                       !- View Factor to Ground
  ,                                       !- Number of Vertices
  6.59383217256854, 16.2356643451371, 2.4384, !- X,Y,Z Vertex 1 {m}
  6.59383217256854, 16.2356643451371, 0,  !- X,Y,Z Vertex 2 {m}
  1.8288, 16.2356643451371, 0,            !- X,Y,Z Vertex 3 {m}
  1.8288, 16.2356643451371, 2.4384;       !- X,Y,Z Vertex 4 {m}

OS:Surface,
  {e103b20d-90fa-48c1-ac26-c6da56bd856f}, !- Handle
  Surface 13,                             !- Name
  Wall,                                   !- Surface Type
  ,                                       !- Construction Name
  {fe801064-00dd-44ba-8821-0c4f42c4b838}, !- Space Name
  Surface,                                !- Outside Boundary Condition
  {80f6d7b4-08e3-47f1-97e8-43cb102b1425}, !- Outside Boundary Condition Object
  NoSun,                                  !- Sun Exposure
  NoWind,                                 !- Wind Exposure
  ,                                       !- View Factor to Ground
  ,                                       !- Number of Vertices
  6.59383217256854, 3.048, 2.4384,        !- X,Y,Z Vertex 1 {m}
  6.59383217256854, 3.048, 0,             !- X,Y,Z Vertex 2 {m}
  6.59383217256854, 14.4068643451371, 0,  !- X,Y,Z Vertex 3 {m}
  6.59383217256854, 14.4068643451371, 2.4384; !- X,Y,Z Vertex 4 {m}

OS:Surface,
  {8b67192b-424c-4046-bb5b-b3319419e691}, !- Handle
  Surface 14,                             !- Name
  Wall,                                   !- Surface Type
  ,                                       !- Construction Name
  {fe801064-00dd-44ba-8821-0c4f42c4b838}, !- Space Name
  Adiabatic,                              !- Outside Boundary Condition
  ,                                       !- Outside Boundary Condition Object
  NoSun,                                  !- Sun Exposure
  NoWind,                                 !- Wind Exposure
  ,                                       !- View Factor to Ground
  ,                                       !- Number of Vertices
  0, 3.048, 2.4384,                       !- X,Y,Z Vertex 1 {m}
  0, 3.048, 0,                            !- X,Y,Z Vertex 2 {m}
  6.59383217256854, 3.048, 0,             !- X,Y,Z Vertex 3 {m}
  6.59383217256854, 3.048, 2.4384;        !- X,Y,Z Vertex 4 {m}

OS:Surface,
  {083f8b66-4a87-4be8-86f2-2148d88eb1b9}, !- Handle
  Surface 15,                             !- Name
  Wall,                                   !- Surface Type
  ,                                       !- Construction Name
  {fe801064-00dd-44ba-8821-0c4f42c4b838}, !- Space Name