!- NOTE: Auto-generated from /test/osw_files/MF_8units_1story_SL_Inset.osw

OS:Version,
  {83eaf919-deac-4981-9159-58aa0cf22577}, !- Handle
  2.3.1;                                  !- Version Identifier

OS:Building,
  {bf305633-c5a1-4881-9edf-ca5e1a8e1274}, !- Handle
  Building,                               !- Name
  ,                                       !- Building Sector Type
  ,                                       !- North Axis {deg}
  ,                                       !- Nominal Floor to Floor Height {m}
  ,                                       !- Space Type Name
  ,                                       !- Default Construction Set Name
  ,                                       !- Default Schedule Set Name
  1,                                      !- Standards Number of Stories
  1,                                      !- Standards Number of Above Ground Stories
  multifamily,                            !- Standards Building Type
  8;                                      !- Standards Number of Living Units

OS:YearDescription,
  {513d8dda-86cb-442a-b01c-1f7f0e0ac70e}; !- Handle

OS:SimulationControl,
  {2c487a4c-bac9-4ac5-b669-1e49d9da7c2b}, !- Handle
  ,                                       !- Do Zone Sizing Calculation
  ,                                       !- Do System Sizing Calculation
  ,                                       !- Do Plant Sizing Calculation
  No,                                     !- Run Simulation for Sizing Periods
  ;                                       !- Run Simulation for Weather File Run Periods

OS:Timestep,
  {4ebc9f1e-4707-402e-9844-67eb1ffbd522}, !- Handle
  6;                                      !- Number of Timesteps per Hour

OS:RunPeriod,
  {28df894d-6af9-4fb8-8f56-df1753344aa3}, !- Handle
  Run Period,                             !- Name
  1,                                      !- Begin Month
  1,                                      !- Begin Day of Month
  12,                                     !- End Month
  31,                                     !- End Day of Month
  ,                                       !- Use Weather File Holidays and Special Days
  ,                                       !- Use Weather File Daylight Saving Period
  ,                                       !- Apply Weekend Holiday Rule
  ,                                       !- Use Weather File Rain Indicators
  ,                                       !- Use Weather File Snow Indicators
  ;                                       !- Number of Times Runperiod to be Repeated

OS:Sizing:Parameters,
  {dde5af6f-7923-4600-a28a-7556673a0266}, !- Handle
  1.0,                                    !- Heating Sizing Factor
  1.0;                                    !- Cooling Sizing Factor

OS:ShadowCalculation,
  {ca758bea-4416-4626-9bba-3d8795c79bd6}, !- Handle
  20,                                     !- Calculation Frequency
  200;                                    !- Maximum Figures in Shadow Overlap Calculations

OS:SurfaceConvectionAlgorithm:Inside,
  {aaabfc36-718a-4ab0-b622-f186ebb45230}, !- Handle
  TARP;                                   !- Algorithm

OS:SurfaceConvectionAlgorithm:Outside,
  {9a0a9f6f-4bbd-4b12-a121-9492a1fcd7d6}, !- Handle
  DOE-2;                                  !- Algorithm

OS:HeatBalanceAlgorithm,
  {9d93e563-e1e0-46d7-9e39-d1c8aceb7212}, !- Handle
  ConductionTransferFunction,             !- Algorithm
  200;                                    !- Surface Temperature Upper Limit {C}

OS:ZoneCapacitanceMultiplier:ResearchSpecial,
  {6bfced16-b16f-47f6-8223-f7e267d75d19}, !- Handle
  ,                                       !- Temperature Capacity Multiplier
  15,                                     !- Humidity Capacity Multiplier
  ;                                       !- Carbon Dioxide Capacity Multiplier

OS:ThermalZone,
  {f848993c-e7bf-4b15-80b3-081240dce263}, !- Handle
  living zone,                            !- Name
  ,                                       !- Multiplier
  ,                                       !- Ceiling Height {m}
  ,                                       !- Volume {m3}
  ,                                       !- Floor Area {m2}
  ,                                       !- Zone Inside Convection Algorithm
  ,                                       !- Zone Outside Convection Algorithm
  ,                                       !- Zone Conditioning Equipment List Name
  {5e449c4b-2055-45fd-9a29-962e1e7d0d4d}, !- Zone Air Inlet Port List
  {1663313c-6f4e-46ba-9360-f3bd5e417224}, !- Zone Air Exhaust Port List
  {ede239fb-4357-4c6a-bc5a-765d8fb1fae0}, !- Zone Air Node Name
  ,                                       !- Zone Return Air Node Name
  ,                                       !- Primary Daylighting Control Name
  ,                                       !- Fraction of Zone Controlled by Primary Daylighting Control
  ,                                       !- Secondary Daylighting Control Name
  ,                                       !- Fraction of Zone Controlled by Secondary Daylighting Control
  ,                                       !- Illuminance Map Name
  ,                                       !- Group Rendering Name
  ,                                       !- Thermostat Name
  No;                                     !- Use Ideal Air Loads

OS:Node,
  {3d1ea438-7408-4ac1-b52b-457d31718c65}, !- Handle
  Node 1,                                 !- Name
  {ede239fb-4357-4c6a-bc5a-765d8fb1fae0}, !- Inlet Port
  ;                                       !- Outlet Port

OS:Connection,
  {ede239fb-4357-4c6a-bc5a-765d8fb1fae0}, !- Handle
  {3a735beb-cab1-4158-b3d1-773bee315c8a}, !- Name
  {f848993c-e7bf-4b15-80b3-081240dce263}, !- Source Object
  11,                                     !- Outlet Port
  {3d1ea438-7408-4ac1-b52b-457d31718c65}, !- Target Object
  2;                                      !- Inlet Port

OS:PortList,
  {5e449c4b-2055-45fd-9a29-962e1e7d0d4d}, !- Handle
  {828280d9-3e69-499c-9844-c790159c89ca}, !- Name
  {f848993c-e7bf-4b15-80b3-081240dce263}; !- HVAC Component

OS:PortList,
  {1663313c-6f4e-46ba-9360-f3bd5e417224}, !- Handle
  {2aa609e2-e673-424e-ac20-46b158d95fb9}, !- Name
  {f848993c-e7bf-4b15-80b3-081240dce263}; !- HVAC Component

OS:Sizing:Zone,
  {9cbabe46-d6ab-4c17-b0e1-2b5c006189fa}, !- Handle
  {f848993c-e7bf-4b15-80b3-081240dce263}, !- Zone or ZoneList Name
  SupplyAirTemperature,                   !- Zone Cooling Design Supply Air Temperature Input Method
  14,                                     !- Zone Cooling Design Supply Air Temperature {C}
  11.11,                                  !- Zone Cooling Design Supply Air Temperature Difference {deltaC}
  SupplyAirTemperature,                   !- Zone Heating Design Supply Air Temperature Input Method
  40,                                     !- Zone Heating Design Supply Air Temperature {C}
  11.11,                                  !- Zone Heating Design Supply Air Temperature Difference {deltaC}
  0.0085,                                 !- Zone Cooling Design Supply Air Humidity Ratio {kg-H2O/kg-air}
  0.008,                                  !- Zone Heating Design Supply Air Humidity Ratio {kg-H2O/kg-air}
  ,                                       !- Zone Heating Sizing Factor
  ,                                       !- Zone Cooling Sizing Factor
  DesignDay,                              !- Cooling Design Air Flow Method
  ,                                       !- Cooling Design Air Flow Rate {m3/s}
  ,                                       !- Cooling Minimum Air Flow per Zone Floor Area {m3/s-m2}
  ,                                       !- Cooling Minimum Air Flow {m3/s}
  ,                                       !- Cooling Minimum Air Flow Fraction
  DesignDay,                              !- Heating Design Air Flow Method
  ,                                       !- Heating Design Air Flow Rate {m3/s}
  ,                                       !- Heating Maximum Air Flow per Zone Floor Area {m3/s-m2}
  ,                                       !- Heating Maximum Air Flow {m3/s}
  ,                                       !- Heating Maximum Air Flow Fraction
  ,                                       !- Design Zone Air Distribution Effectiveness in Cooling Mode
  ,                                       !- Design Zone Air Distribution Effectiveness in Heating Mode
  No,                                     !- Account for Dedicated Outdoor Air System
  NeutralSupplyAir,                       !- Dedicated Outdoor Air System Control Strategy
  autosize,                               !- Dedicated Outdoor Air Low Setpoint Temperature for Design {C}
  autosize;                               !- Dedicated Outdoor Air High Setpoint Temperature for Design {C}

OS:ZoneHVAC:EquipmentList,
  {cd229adb-7c0a-452a-9d49-975f42046fce}, !- Handle
  Zone HVAC Equipment List 1,             !- Name
  {f848993c-e7bf-4b15-80b3-081240dce263}; !- Thermal Zone

OS:Space,
  {dc261663-2b99-49fb-8dcc-d5cc38243362}, !- Handle
  living space,                           !- Name
  ,                                       !- Space Type Name
  ,                                       !- Default Construction Set Name
  ,                                       !- Default Schedule Set Name
  ,                                       !- Direction of Relative North {deg}
  ,                                       !- X Origin {m}
  ,                                       !- Y Origin {m}
  ,                                       !- Z Origin {m}
  ,                                       !- Building Story Name
  {f848993c-e7bf-4b15-80b3-081240dce263}, !- Thermal Zone Name
  ,                                       !- Part of Total Floor Area
  ,                                       !- Design Specification Outdoor Air Object Name
  {63ba05f7-d3db-4bf3-9822-0df82359a912}; !- Building Unit Name

OS:Surface,
  {965c5a83-648b-4b94-bd44-b0c5d88591fe}, !- Handle
  Surface 1,                              !- Name
  Floor,                                  !- Surface Type
  ,                                       !- Construction Name
  {dc261663-2b99-49fb-8dcc-d5cc38243362}, !- Space Name
  Ground,                                 !- Outside Boundary Condition
  ,                                       !- Outside Boundary Condition Object
  NoSun,                                  !- Sun Exposure
  NoWind,                                 !- Wind Exposure
  ,                                       !- View Factor to Ground
  ,                                       !- Number of Vertices
  0, -13.1876643451371, 0,                !- X,Y,Z Vertex 1 {m}
  0, 0, 0,                                !- X,Y,Z Vertex 2 {m}
  6.59383217256854, 0, 0,                 !- X,Y,Z Vertex 3 {m}
  6.59383217256854, -11.3588643451371, 0, !- X,Y,Z Vertex 4 {m}
  4.76503217256854, -11.3588643451371, 0, !- X,Y,Z Vertex 5 {m}
  4.76503217256854, -13.1876643451371, 0; !- X,Y,Z Vertex 6 {m}

OS:Surface,
  {dfbea8d0-9295-40a6-a666-af185eabbf68}, !- Handle
  Surface 2,                              !- Name
  Wall,                                   !- Surface Type
  ,                                       !- Construction Name
  {dc261663-2b99-49fb-8dcc-d5cc38243362}, !- Space Name
  Outdoors,                               !- Outside Boundary Condition
  ,                                       !- Outside Boundary Condition Object
  SunExposed,                             !- Sun Exposure
  WindExposed,                            !- Wind Exposure
  ,                                       !- View Factor to Ground
  ,                                       !- Number of Vertices
  0, 0, 2.4384,                           !- X,Y,Z Vertex 1 {m}
  0, 0, 0,                                !- X,Y,Z Vertex 2 {m}
  0, -13.1876643451371, 0,                !- X,Y,Z Vertex 3 {m}
  0, -13.1876643451371, 2.4384;           !- X,Y,Z Vertex 4 {m}

OS:Surface,
  {6f68619e-ed48-4c1a-b58f-b9402f7e513e}, !- Handle
  Surface 3,                              !- Name
  Wall,                                   !- Surface Type
  ,                                       !- Construction Name
  {dc261663-2b99-49fb-8dcc-d5cc38243362}, !- Space Name
  Adiabatic,                              !- Outside Boundary Condition
  ,                                       !- Outside Boundary Condition Object
  NoSun,                                  !- Sun Exposure
  NoWind,                                 !- Wind Exposure
  ,                                       !- View Factor to Ground
  ,                                       !- Number of Vertices
  6.59383217256854, 0, 2.4384,            !- X,Y,Z Vertex 1 {m}
  6.59383217256854, 0, 0,                 !- X,Y,Z Vertex 2 {m}
  0, 0, 0,                                !- X,Y,Z Vertex 3 {m}
  0, 0, 2.4384;                           !- X,Y,Z Vertex 4 {m}

OS:Surface,
  {84e21aa9-9178-4bc5-80cc-8f5152fb7797}, !- Handle
  Surface 4,                              !- Name
  Wall,                                   !- Surface Type
  ,                                       !- Construction Name
  {dc261663-2b99-49fb-8dcc-d5cc38243362}, !- Space Name
  Surface,                                !- Outside Boundary Condition
  {9c994a44-6390-425d-946c-baa91e6d7b0c}, !- Outside Boundary Condition Object
  NoSun,                                  !- Sun Exposure
  NoWind,                                 !- Wind Exposure
  ,                                       !- View Factor to Ground
  ,                                       !- Number of Vertices
  6.59383217256854, -11.3588643451371, 2.4384, !- X,Y,Z Vertex 1 {m}
  6.59383217256854, -11.3588643451371, 0, !- X,Y,Z Vertex 2 {m}
  6.59383217256854, 0, 0,                 !- X,Y,Z Vertex 3 {m}
  6.59383217256854, 0, 2.4384;            !- X,Y,Z Vertex 4 {m}

OS:Surface,
  {bf7094a7-37a6-4f31-b0d8-321c13494b16}, !- Handle
  Surface 5,                              !- Name
  Wall,                                   !- Surface Type
  ,                                       !- Construction Name
  {dc261663-2b99-49fb-8dcc-d5cc38243362}, !- Space Name
  Outdoors,                               !- Outside Boundary Condition
  ,                                       !- Outside Boundary Condition Object
  SunExposed,                             !- Sun Exposure
  WindExposed,                            !- Wind Exposure
  ,                                       !- View Factor to Ground
  ,                                       !- Number of Vertices
  4.76503217256854, -11.3588643451371, 2.4384, !- X,Y,Z Vertex 1 {m}
  4.76503217256854, -11.3588643451371, 0, !- X,Y,Z Vertex 2 {m}
  6.59383217256854, -11.3588643451371, 0, !- X,Y,Z Vertex 3 {m}
  6.59383217256854, -11.3588643451371, 2.4384; !- X,Y,Z Vertex 4 {m}

OS:Surface,
  {dbc44e79-c588-425d-b009-c664c25e394e}, !- Handle
  Surface 6,                              !- Name
  Wall,                                   !- Surface Type
  ,                                       !- Construction Name
  {dc261663-2b99-49fb-8dcc-d5cc38243362}, !- Space Name
  Outdoors,                               !- Outside Boundary Condition
  ,                                       !- Outside Boundary Condition Object
  SunExposed,                             !- Sun Exposure
  WindExposed,                            !- Wind Exposure
  ,                                       !- View Factor to Ground
  ,                                       !- Number of Vertices
  4.76503217256854, -13.1876643451371, 2.4384, !- X,Y,Z Vertex 1 {m}
  4.76503217256854, -13.1876643451371, 0, !- X,Y,Z Vertex 2 {m}
  4.76503217256854, -11.3588643451371, 0, !- X,Y,Z Vertex 3 {m}
  4.76503217256854, -11.3588643451371, 2.4384; !- X,Y,Z Vertex 4 {m}

OS:Surface,
  {53d8ecb6-c96c-4dd8-a728-7d9b807bd31a}, !- Handle
  Surface 7,                              !- Name
  Wall,                                   !- Surface Type
  ,                                       !- Construction Name
  {dc261663-2b99-49fb-8dcc-d5cc38243362}, !- Space Name
  Outdoors,                               !- Outside Boundary Condition
  ,                                       !- Outside Boundary Condition Object
  SunExposed,                             !- Sun Exposure
  WindExposed,                            !- Wind Exposure
  ,                                       !- View Factor to Ground
  ,                                       !- Number of Vertices
  0, -13.1876643451371, 2.4384,           !- X,Y,Z Vertex 1 {m}
  0, -13.1876643451371, 0,                !- X,Y,Z Vertex 2 {m}
  4.76503217256854, -13.1876643451371, 0, !- X,Y,Z Vertex 3 {m}
  4.76503217256854, -13.1876643451371, 2.4384; !- X,Y,Z Vertex 4 {m}

OS:Surface,
  {dcf6e8a6-047e-4e00-b911-8896c8f81992}, !- Handle
  Surface 8,                              !- Name
  RoofCeiling,                            !- Surface Type
  ,                                       !- Construction Name
  {dc261663-2b99-49fb-8dcc-d5cc38243362}, !- Space Name
  Outdoors,                               !- Outside Boundary Condition
  ,                                       !- Outside Boundary Condition Object
  SunExposed,                             !- Sun Exposure
  WindExposed,                            !- Wind Exposure
  ,                                       !- View Factor to Ground
  ,                                       !- Number of Vertices
  4.76503217256854, -13.1876643451371, 2.4384, !- X,Y,Z Vertex 1 {m}
  4.76503217256854, -11.3588643451371, 2.4384, !- X,Y,Z Vertex 2 {m}
  6.59383217256854, -11.3588643451371, 2.4384, !- X,Y,Z Vertex 3 {m}
  6.59383217256854, 0, 2.4384,            !- X,Y,Z Vertex 4 {m}
  0, 0, 2.4384,                           !- X,Y,Z Vertex 5 {m}
  0, -13.1876643451371, 2.4384;           !- X,Y,Z Vertex 6 {m}

OS:ThermalZone,
  {d6371915-640e-4156-aca9-f02fc07f45af}, !- Handle
  living zone|unit 2,                     !- Name
  ,                                       !- Multiplier
  ,                                       !- Ceiling Height {m}
  ,                                       !- Volume {m3}
  ,                                       !- Floor Area {m2}
  ,                                       !- Zone Inside Convection Algorithm
  ,                                       !- Zone Outside Convection Algorithm
  ,                                       !- Zone Conditioning Equipment List Name
  {8435f61d-d9f1-4a57-a2e1-e104be0564b1}, !- Zone Air Inlet Port List
  {2b6b12b7-c68e-4510-8ca7-30934b8155ca}, !- Zone Air Exhaust Port List
  {5e05085e-21d3-4f43-b6eb-e92020e40696}, !- Zone Air Node Name
  ,                                       !- Zone Return Air Node Name
  ,                                       !- Primary Daylighting Control Name
  ,                                       !- Fraction of Zone Controlled by Primary Daylighting Control
  ,                                       !- Secondary Daylighting Control Name
  ,                                       !- Fraction of Zone Controlled by Secondary Daylighting Control
  ,                                       !- Illuminance Map Name
  ,                                       !- Group Rendering Name
  ,                                       !- Thermostat Name
  No;                                     !- Use Ideal Air Loads

OS:Node,
  {ab43ee6d-83c0-4028-aaca-76e45baf3e61}, !- Handle
  Node 2,                                 !- Name
  {5e05085e-21d3-4f43-b6eb-e92020e40696}, !- Inlet Port
  ;                                       !- Outlet Port

OS:Connection,
  {5e05085e-21d3-4f43-b6eb-e92020e40696}, !- Handle
  {03656781-e8bc-4e41-980b-6da4be10df4e}, !- Name
  {d6371915-640e-4156-aca9-f02fc07f45af}, !- Source Object
  11,                                     !- Outlet Port
  {ab43ee6d-83c0-4028-aaca-76e45baf3e61}, !- Target Object
  2;                                      !- Inlet Port

OS:PortList,
  {8435f61d-d9f1-4a57-a2e1-e104be0564b1}, !- Handle
  {d4f1a0be-3e74-4d66-845a-66d945b83309}, !- Name
  {d6371915-640e-4156-aca9-f02fc07f45af}; !- HVAC Component

OS:PortList,
  {2b6b12b7-c68e-4510-8ca7-30934b8155ca}, !- Handle
  {a2ce346b-95e1-45f0-86a3-299e7f62f9f0}, !- Name
  {d6371915-640e-4156-aca9-f02fc07f45af}; !- HVAC Component

OS:Sizing:Zone,
  {d7b6e9cf-fa09-4541-8bb6-48d07f05cc70}, !- Handle
  {d6371915-640e-4156-aca9-f02fc07f45af}, !- Zone or ZoneList Name
  SupplyAirTemperature,                   !- Zone Cooling Design Supply Air Temperature Input Method
  14,                                     !- Zone Cooling Design Supply Air Temperature {C}
  11.11,                                  !- Zone Cooling Design Supply Air Temperature Difference {deltaC}
  SupplyAirTemperature,                   !- Zone Heating Design Supply Air Temperature Input Method
  40,                                     !- Zone Heating Design Supply Air Temperature {C}
  11.11,                                  !- Zone Heating Design Supply Air Temperature Difference {deltaC}
  0.0085,                                 !- Zone Cooling Design Supply Air Humidity Ratio {kg-H2O/kg-air}
  0.008,                                  !- Zone Heating Design Supply Air Humidity Ratio {kg-H2O/kg-air}
  ,                                       !- Zone Heating Sizing Factor
  ,                                       !- Zone Cooling Sizing Factor
  DesignDay,                              !- Cooling Design Air Flow Method
  ,                                       !- Cooling Design Air Flow Rate {m3/s}
  ,                                       !- Cooling Minimum Air Flow per Zone Floor Area {m3/s-m2}
  ,                                       !- Cooling Minimum Air Flow {m3/s}
  ,                                       !- Cooling Minimum Air Flow Fraction
  DesignDay,                              !- Heating Design Air Flow Method
  ,                                       !- Heating Design Air Flow Rate {m3/s}
  ,                                       !- Heating Maximum Air Flow per Zone Floor Area {m3/s-m2}
  ,                                       !- Heating Maximum Air Flow {m3/s}
  ,                                       !- Heating Maximum Air Flow Fraction
  ,                                       !- Design Zone Air Distribution Effectiveness in Cooling Mode
  ,                                       !- Design Zone Air Distribution Effectiveness in Heating Mode
  No,                                     !- Account for Dedicated Outdoor Air System
  NeutralSupplyAir,                       !- Dedicated Outdoor Air System Control Strategy
  autosize,                               !- Dedicated Outdoor Air Low Setpoint Temperature for Design {C}
  autosize;                               !- Dedicated Outdoor Air High Setpoint Temperature for Design {C}

OS:ZoneHVAC:EquipmentList,
  {5c45cd3d-e62f-44df-b7e7-97d210864fd8}, !- Handle
  Zone HVAC Equipment List 2,             !- Name
  {d6371915-640e-4156-aca9-f02fc07f45af}; !- Thermal Zone

OS:Space,
  {03416b2a-3592-43fe-bddc-3462365518d6}, !- Handle
  living space|unit 2,                    !- Name
  ,                                       !- Space Type Name
  ,                                       !- Default Construction Set Name
  ,                                       !- Default Schedule Set Name
  ,                                       !- Direction of Relative North {deg}
  ,                                       !- X Origin {m}
  ,                                       !- Y Origin {m}
  ,                                       !- Z Origin {m}
  ,                                       !- Building Story Name
  {d6371915-640e-4156-aca9-f02fc07f45af}, !- Thermal Zone Name
  ,                                       !- Part of Total Floor Area
  ,                                       !- Design Specification Outdoor Air Object Name
  {212d7422-b6e6-4985-b61e-6a97ac27f36d}; !- Building Unit Name

OS:Surface,
  {352f870b-c435-4366-bb98-3af76fe05727}, !- Handle
  Surface 9,                              !- Name
  Floor,                                  !- Surface Type
  ,                                       !- Construction Name
  {03416b2a-3592-43fe-bddc-3462365518d6}, !- Space Name
  Ground,                                 !- Outside Boundary Condition
  ,                                       !- Outside Boundary Condition Object
  NoSun,                                  !- Sun Exposure
  NoWind,                                 !- Wind Exposure
  ,                                       !- View Factor to Ground
  ,                                       !- Number of Vertices
  0, 14.4068643451371, 0,                 !- X,Y,Z Vertex 1 {m}
  1.8288, 14.4068643451371, 0,            !- X,Y,Z Vertex 2 {m}
  1.8288, 16.2356643451371, 0,            !- X,Y,Z Vertex 3 {m}
  6.59383217256854, 16.2356643451371, 0,  !- X,Y,Z Vertex 4 {m}
  6.59383217256854, 3.048, 0,             !- X,Y,Z Vertex 5 {m}
  0, 3.048, 0;                            !- X,Y,Z Vertex 6 {m}

OS:Surface,
  {54e67994-ff21-4ca1-a393-97d4b2249696}, !- Handle
  Surface 10,                             !- Name
  Wall,                                   !- Surface Type
  ,                                       !- Construction Name
  {03416b2a-3592-43fe-bddc-3462365518d6}, !- Space Name
  Outdoors,                               !- Outside Boundary Condition
  ,                                       !- Outside Boundary Condition Object
  SunExposed,                             !- Sun Exposure
  WindExposed,                            !- Wind Exposure
  ,                                       !- View Factor to Ground
  ,                                       !- Number of Vertices
  1.8288, 14.4068643451371, 2.4384,       !- X,Y,Z Vertex 1 {m}
  1.8288, 14.4068643451371, 0,            !- X,Y,Z Vertex 2 {m}
  0, 14.4068643451371, 0,                 !- X,Y,Z Vertex 3 {m}
  0, 14.4068643451371, 2.4384;            !- X,Y,Z Vertex 4 {m}

OS:Surface,
  {3e642b98-4952-4a23-86cc-087a9d183c35}, !- Handle
  Surface 11,                             !- Name
  Wall,                                   !- Surface Type
  ,                                       !- Construction Name
  {03416b2a-3592-43fe-bddc-3462365518d6}, !- Space Name
  Outdoors,                               !- Outside Boundary Condition
  ,                                       !- Outside Boundary Condition Object
  SunExposed,                             !- Sun Exposure
  WindExposed,                            !- Wind Exposure
  ,                                       !- View Factor to Ground
  ,                                       !- Number of Vertices
  1.8288, 16.2356643451371, 2.4384,       !- X,Y,Z Vertex 1 {m}
  1.8288, 16.2356643451371, 0,            !- X,Y,Z Vertex 2 {m}
  1.8288, 14.4068643451371, 0,            !- X,Y,Z Vertex 3 {m}
  1.8288, 14.4068643451371, 2.4384;       !- X,Y,Z Vertex 4 {m}

OS:Surface,
  {66cd5921-8d91-4c8d-8c45-90e5ebc16c7c}, !- Handle
  Surface 12,                             !- Name
  Wall,                                   !- Surface Type
  ,                                       !- Construction Name
  {03416b2a-3592-43fe-bddc-3462365518d6}, !- Space Name
  Outdoors,                               !- Outside Boundary Condition
  ,                                       !- Outside Boundary Condition Object
  SunExposed,                             !- Sun Exposure
  WindExposed,                            !- Wind Exposure
  ,                                       !- View Factor to Ground
  ,                                       !- Number of Vertices
  6.59383217256854, 16.2356643451371, 2.4384, !- X,Y,Z Vertex 1 {m}
  6.59383217256854, 16.2356643451371, 0,  !- X,Y,Z Vertex 2 {m}
  1.8288, 16.2356643451371, 0,            !- X,Y,Z Vertex 3 {m}
  1.8288, 16.2356643451371, 2.4384;       !- X,Y,Z Vertex 4 {m}

OS:Surface,
  {02a77550-dde6-4d78-820c-134165053a48}, !- Handle
  Surface 13,                             !- Name
  Wall,                                   !- Surface Type
  ,                                       !- Construction Name
  {03416b2a-3592-43fe-bddc-3462365518d6}, !- Space Name
  Surface,                                !- Outside Boundary Condition
  {9e75df9c-7aef-4fbc-9cb9-cac051697e4b}, !- Outside Boundary Condition Object
  NoSun,                                  !- Sun Exposure
  NoWind,                                 !- Wind Exposure
  ,                                       !- View Factor to Ground
  ,                                       !- Number of Vertices
  6.59383217256854, 3.048, 2.4384,        !- X,Y,Z Vertex 1 {m}
  6.59383217256854, 3.048, 0,             !- X,Y,Z Vertex 2 {m}
  6.59383217256854, 14.4068643451371, 0,  !- X,Y,Z Vertex 3 {m}
  6.59383217256854, 14.4068643451371, 2.4384; !- X,Y,Z Vertex 4 {m}

OS:Surface,
  {7d458d4a-9147-42c1-9344-00773134b4a0}, !- Handle
  Surface 14,                             !- Name
  Wall,                                   !- Surface Type
  ,                                       !- Construction Name
  {03416b2a-3592-43fe-bddc-3462365518d6}, !- Space Name
  Adiabatic,                              !- Outside Boundary Condition
  ,                                       !- Outside Boundary Condition Object
  NoSun,                                  !- Sun Exposure
  NoWind,                                 !- Wind Exposure
  ,                                       !- View Factor to Ground
  ,                                       !- Number of Vertices
  0, 3.048, 2.4384,                       !- X,Y,Z Vertex 1 {m}
  0, 3.048, 0,                            !- X,Y,Z Vertex 2 {m}
  6.59383217256854, 3.048, 0,             !- X,Y,Z Vertex 3 {m}
  6.59383217256854, 3.048, 2.4384;        !- X,Y,Z Vertex 4 {m}

OS:Surface,
  {dca8e460-7334-4734-968d-71e5dd9074d7}, !- Handle
  Surface 15,                             !- Name
  Wall,                                   !- Surface Type
  ,                                       !- Construction Name
  {03416b2a-3592-43fe-bddc-3462365518d6}, !- Space Name