!- NOTE: Auto-generated from /test/osw_files/MF_8units_1story_SL_InsetLeft.osw

OS:Version,
  {511a473d-e3f8-4932-9650-20513219d4eb}, !- Handle
  2.3.1;                                  !- Version Identifier

OS:Building,
  {bf305633-c5a1-4881-9edf-ca5e1a8e1274}, !- Handle
  Building,                               !- Name
  ,                                       !- Building Sector Type
  ,                                       !- North Axis {deg}
  ,                                       !- Nominal Floor to Floor Height {m}
  ,                                       !- Space Type Name
  ,                                       !- Default Construction Set Name
  ,                                       !- Default Schedule Set Name
  1,                                      !- Standards Number of Stories
  1,                                      !- Standards Number of Above Ground Stories
  multifamily,                            !- Standards Building Type
  8;                                      !- Standards Number of Living Units

OS:YearDescription,
  {513d8dda-86cb-442a-b01c-1f7f0e0ac70e}; !- Handle

OS:SimulationControl,
  {2c487a4c-bac9-4ac5-b669-1e49d9da7c2b}, !- Handle
  ,                                       !- Do Zone Sizing Calculation
  ,                                       !- Do System Sizing Calculation
  ,                                       !- Do Plant Sizing Calculation
  No,                                     !- Run Simulation for Sizing Periods
  ;                                       !- Run Simulation for Weather File Run Periods

OS:Timestep,
  {4ebc9f1e-4707-402e-9844-67eb1ffbd522}, !- Handle
  6;                                      !- Number of Timesteps per Hour

OS:RunPeriod,
  {28df894d-6af9-4fb8-8f56-df1753344aa3}, !- Handle
  Run Period,                             !- Name
  1,                                      !- Begin Month
  1,                                      !- Begin Day of Month
  12,                                     !- End Month
  31,                                     !- End Day of Month
  ,                                       !- Use Weather File Holidays and Special Days
  ,                                       !- Use Weather File Daylight Saving Period
  ,                                       !- Apply Weekend Holiday Rule
  ,                                       !- Use Weather File Rain Indicators
  ,                                       !- Use Weather File Snow Indicators
  ;                                       !- Number of Times Runperiod to be Repeated

OS:Sizing:Parameters,
  {dde5af6f-7923-4600-a28a-7556673a0266}, !- Handle
  1.0,                                    !- Heating Sizing Factor
  1.0;                                    !- Cooling Sizing Factor

OS:ShadowCalculation,
  {ca758bea-4416-4626-9bba-3d8795c79bd6}, !- Handle
  20,                                     !- Calculation Frequency
  200;                                    !- Maximum Figures in Shadow Overlap Calculations

OS:SurfaceConvectionAlgorithm:Inside,
  {aaabfc36-718a-4ab0-b622-f186ebb45230}, !- Handle
  TARP;                                   !- Algorithm

OS:SurfaceConvectionAlgorithm:Outside,
  {9a0a9f6f-4bbd-4b12-a121-9492a1fcd7d6}, !- Handle
  DOE-2;                                  !- Algorithm

OS:HeatBalanceAlgorithm,
  {9d93e563-e1e0-46d7-9e39-d1c8aceb7212}, !- Handle
  ConductionTransferFunction,             !- Algorithm
  200;                                    !- Surface Temperature Upper Limit {C}

OS:ZoneCapacitanceMultiplier:ResearchSpecial,
  {6bfced16-b16f-47f6-8223-f7e267d75d19}, !- Handle
  ,                                       !- Temperature Capacity Multiplier
  15,                                     !- Humidity Capacity Multiplier
  ;                                       !- Carbon Dioxide Capacity Multiplier

OS:ThermalZone,
  {e268afc2-09e3-4541-8f65-19e994fa338f}, !- Handle
  living zone,                            !- Name
  ,                                       !- Multiplier
  ,                                       !- Ceiling Height {m}
  ,                                       !- Volume {m3}
  ,                                       !- Floor Area {m2}
  ,                                       !- Zone Inside Convection Algorithm
  ,                                       !- Zone Outside Convection Algorithm
  ,                                       !- Zone Conditioning Equipment List Name
  {91f58abf-add5-466c-bb1a-4e1caea62e9c}, !- Zone Air Inlet Port List
  {26e88806-c5e9-4638-8de3-f2ce43c49eee}, !- Zone Air Exhaust Port List
  {5a70c23e-d39e-46f3-8209-b72efb965d65}, !- Zone Air Node Name
  ,                                       !- Zone Return Air Node Name
  ,                                       !- Primary Daylighting Control Name
  ,                                       !- Fraction of Zone Controlled by Primary Daylighting Control
  ,                                       !- Secondary Daylighting Control Name
  ,                                       !- Fraction of Zone Controlled by Secondary Daylighting Control
  ,                                       !- Illuminance Map Name
  ,                                       !- Group Rendering Name
  ,                                       !- Thermostat Name
  No;                                     !- Use Ideal Air Loads

OS:Node,
  {30b3b889-20ef-49c5-9e79-62d8fd8652f5}, !- Handle
  Node 1,                                 !- Name
  {5a70c23e-d39e-46f3-8209-b72efb965d65}, !- Inlet Port
  ;                                       !- Outlet Port

OS:Connection,
  {5a70c23e-d39e-46f3-8209-b72efb965d65}, !- Handle
  {73392f81-d771-41ac-95d9-c0bcf619035a}, !- Name
  {e268afc2-09e3-4541-8f65-19e994fa338f}, !- Source Object
  11,                                     !- Outlet Port
  {30b3b889-20ef-49c5-9e79-62d8fd8652f5}, !- Target Object
  2;                                      !- Inlet Port

OS:PortList,
  {91f58abf-add5-466c-bb1a-4e1caea62e9c}, !- Handle
  {dc10cc82-4462-4ac4-afe2-81eea1badbb3}, !- Name
  {e268afc2-09e3-4541-8f65-19e994fa338f}; !- HVAC Component

OS:PortList,
  {26e88806-c5e9-4638-8de3-f2ce43c49eee}, !- Handle
  {80a16c08-2b1b-4dd3-b26b-c6c8ce02b972}, !- Name
  {e268afc2-09e3-4541-8f65-19e994fa338f}; !- HVAC Component

OS:Sizing:Zone,
  {4f8b9206-1c99-4496-8078-cf6409c16e13}, !- Handle
  {e268afc2-09e3-4541-8f65-19e994fa338f}, !- Zone or ZoneList Name
  SupplyAirTemperature,                   !- Zone Cooling Design Supply Air Temperature Input Method
  14,                                     !- Zone Cooling Design Supply Air Temperature {C}
  11.11,                                  !- Zone Cooling Design Supply Air Temperature Difference {deltaC}
  SupplyAirTemperature,                   !- Zone Heating Design Supply Air Temperature Input Method
  40,                                     !- Zone Heating Design Supply Air Temperature {C}
  11.11,                                  !- Zone Heating Design Supply Air Temperature Difference {deltaC}
  0.0085,                                 !- Zone Cooling Design Supply Air Humidity Ratio {kg-H2O/kg-air}
  0.008,                                  !- Zone Heating Design Supply Air Humidity Ratio {kg-H2O/kg-air}
  ,                                       !- Zone Heating Sizing Factor
  ,                                       !- Zone Cooling Sizing Factor
  DesignDay,                              !- Cooling Design Air Flow Method
  ,                                       !- Cooling Design Air Flow Rate {m3/s}
  ,                                       !- Cooling Minimum Air Flow per Zone Floor Area {m3/s-m2}
  ,                                       !- Cooling Minimum Air Flow {m3/s}
  ,                                       !- Cooling Minimum Air Flow Fraction
  DesignDay,                              !- Heating Design Air Flow Method
  ,                                       !- Heating Design Air Flow Rate {m3/s}
  ,                                       !- Heating Maximum Air Flow per Zone Floor Area {m3/s-m2}
  ,                                       !- Heating Maximum Air Flow {m3/s}
  ,                                       !- Heating Maximum Air Flow Fraction
  ,                                       !- Design Zone Air Distribution Effectiveness in Cooling Mode
  ,                                       !- Design Zone Air Distribution Effectiveness in Heating Mode
  No,                                     !- Account for Dedicated Outdoor Air System
  NeutralSupplyAir,                       !- Dedicated Outdoor Air System Control Strategy
  autosize,                               !- Dedicated Outdoor Air Low Setpoint Temperature for Design {C}
  autosize;                               !- Dedicated Outdoor Air High Setpoint Temperature for Design {C}

OS:ZoneHVAC:EquipmentList,
  {9a82337a-1e03-4cc7-80e1-89f52355c390}, !- Handle
  Zone HVAC Equipment List 1,             !- Name
  {e268afc2-09e3-4541-8f65-19e994fa338f}; !- Thermal Zone

OS:Space,
  {aba83bff-2efd-48ca-839e-05d576a957c9}, !- Handle
  living space,                           !- Name
  ,                                       !- Space Type Name
  ,                                       !- Default Construction Set Name
  ,                                       !- Default Schedule Set Name
  ,                                       !- Direction of Relative North {deg}
  ,                                       !- X Origin {m}
  ,                                       !- Y Origin {m}
  ,                                       !- Z Origin {m}
  ,                                       !- Building Story Name
  {e268afc2-09e3-4541-8f65-19e994fa338f}, !- Thermal Zone Name
  ,                                       !- Part of Total Floor Area
  ,                                       !- Design Specification Outdoor Air Object Name
  {818f5c17-b83b-44f4-a025-70ea8f058651}; !- Building Unit Name

OS:Surface,
  {e63b33de-ac61-4277-b30f-abe4b4866379}, !- Handle
  Surface 1,                              !- Name
  Floor,                                  !- Surface Type
  ,                                       !- Construction Name
  {aba83bff-2efd-48ca-839e-05d576a957c9}, !- Space Name
  Ground,                                 !- Outside Boundary Condition
  ,                                       !- Outside Boundary Condition Object
  NoSun,                                  !- Sun Exposure
  NoWind,                                 !- Wind Exposure
  ,                                       !- View Factor to Ground
  ,                                       !- Number of Vertices
  0, -11.3588643451371, 0,                !- X,Y,Z Vertex 1 {m}
  0, 0, 0,                                !- X,Y,Z Vertex 2 {m}
  6.59383217256854, 0, 0,                 !- X,Y,Z Vertex 3 {m}
  6.59383217256854, -13.1876643451371, 0, !- X,Y,Z Vertex 4 {m}
  1.8288, -13.1876643451371, 0,           !- X,Y,Z Vertex 5 {m}
  1.8288, -11.3588643451371, 0;           !- X,Y,Z Vertex 6 {m}

OS:Surface,
  {75159f1e-3420-4549-9828-cf093d534c8b}, !- Handle
  Surface 2,                              !- Name
  Wall,                                   !- Surface Type
  ,                                       !- Construction Name
  {aba83bff-2efd-48ca-839e-05d576a957c9}, !- Space Name
  Outdoors,                               !- Outside Boundary Condition
  ,                                       !- Outside Boundary Condition Object
  SunExposed,                             !- Sun Exposure
  WindExposed,                            !- Wind Exposure
  ,                                       !- View Factor to Ground
  ,                                       !- Number of Vertices
  0, 0, 2.4384,                           !- X,Y,Z Vertex 1 {m}
  0, 0, 0,                                !- X,Y,Z Vertex 2 {m}
  0, -11.3588643451371, 0,                !- X,Y,Z Vertex 3 {m}
  0, -11.3588643451371, 2.4384;           !- X,Y,Z Vertex 4 {m}

OS:Surface,
  {24ac6a98-66aa-401e-bdab-fc709005df52}, !- Handle
  Surface 3,                              !- Name
  Wall,                                   !- Surface Type
  ,                                       !- Construction Name
  {aba83bff-2efd-48ca-839e-05d576a957c9}, !- Space Name
  Adiabatic,                              !- Outside Boundary Condition
  ,                                       !- Outside Boundary Condition Object
  NoSun,                                  !- Sun Exposure
  NoWind,                                 !- Wind Exposure
  ,                                       !- View Factor to Ground
  ,                                       !- Number of Vertices
  6.59383217256854, 0, 2.4384,            !- X,Y,Z Vertex 1 {m}
  6.59383217256854, 0, 0,                 !- X,Y,Z Vertex 2 {m}
  0, 0, 0,                                !- X,Y,Z Vertex 3 {m}
  0, 0, 2.4384;                           !- X,Y,Z Vertex 4 {m}

OS:Surface,
  {833b1566-70c0-4464-9d4b-fb479634013c}, !- Handle
  Surface 4,                              !- Name
  Wall,                                   !- Surface Type
  ,                                       !- Construction Name
  {aba83bff-2efd-48ca-839e-05d576a957c9}, !- Space Name
  Surface,                                !- Outside Boundary Condition
  {ba6691a6-184c-4cc1-80aa-b7d511112cd3}, !- Outside Boundary Condition Object
  NoSun,                                  !- Sun Exposure
  NoWind,                                 !- Wind Exposure
  ,                                       !- View Factor to Ground
  ,                                       !- Number of Vertices
  6.59383217256854, -11.3588643451371, 2.4384, !- X,Y,Z Vertex 1 {m}
  6.59383217256854, -11.3588643451371, 0, !- X,Y,Z Vertex 2 {m}
  6.59383217256854, 0, 0,                 !- X,Y,Z Vertex 3 {m}
  6.59383217256854, 0, 2.4384;            !- X,Y,Z Vertex 4 {m}

OS:Surface,
  {ee96e041-5b86-4342-9b0b-6d6cccbfbdd8}, !- Handle
  Surface 5,                              !- Name
  Wall,                                   !- Surface Type
  ,                                       !- Construction Name
  {aba83bff-2efd-48ca-839e-05d576a957c9}, !- Space Name
  Outdoors,                               !- Outside Boundary Condition
  ,                                       !- Outside Boundary Condition Object
  SunExposed,                             !- Sun Exposure
  WindExposed,                            !- Wind Exposure
  ,                                       !- View Factor to Ground
  ,                                       !- Number of Vertices
  1.8288, -13.1876643451371, 2.4384,      !- X,Y,Z Vertex 1 {m}
  1.8288, -13.1876643451371, 0,           !- X,Y,Z Vertex 2 {m}
  6.59383217256854, -13.1876643451371, 0, !- X,Y,Z Vertex 3 {m}
  6.59383217256854, -13.1876643451371, 2.4384; !- X,Y,Z Vertex 4 {m}

OS:Surface,
  {de1204cb-b91c-4e1d-853c-b51f5b16e31f}, !- Handle
  Surface 6,                              !- Name
  Wall,                                   !- Surface Type
  ,                                       !- Construction Name
  {aba83bff-2efd-48ca-839e-05d576a957c9}, !- Space Name
  Outdoors,                               !- Outside Boundary Condition
  ,                                       !- Outside Boundary Condition Object
  SunExposed,                             !- Sun Exposure
  WindExposed,                            !- Wind Exposure
  ,                                       !- View Factor to Ground
  ,                                       !- Number of Vertices
  1.8288, -11.3588643451371, 2.4384,      !- X,Y,Z Vertex 1 {m}
  1.8288, -11.3588643451371, 0,           !- X,Y,Z Vertex 2 {m}
  1.8288, -13.1876643451371, 0,           !- X,Y,Z Vertex 3 {m}
  1.8288, -13.1876643451371, 2.4384;      !- X,Y,Z Vertex 4 {m}

OS:Surface,
  {f555ace5-a913-4618-b406-c09ceccf743e}, !- Handle
  Surface 7,                              !- Name
  Wall,                                   !- Surface Type
  ,                                       !- Construction Name
  {aba83bff-2efd-48ca-839e-05d576a957c9}, !- Space Name
  Outdoors,                               !- Outside Boundary Condition
  ,                                       !- Outside Boundary Condition Object
  SunExposed,                             !- Sun Exposure
  WindExposed,                            !- Wind Exposure
  ,                                       !- View Factor to Ground
  ,                                       !- Number of Vertices
  0, -11.3588643451371, 2.4384,           !- X,Y,Z Vertex 1 {m}
  0, -11.3588643451371, 0,                !- X,Y,Z Vertex 2 {m}
  1.8288, -11.3588643451371, 0,           !- X,Y,Z Vertex 3 {m}
  1.8288, -11.3588643451371, 2.4384;      !- X,Y,Z Vertex 4 {m}

OS:Surface,
  {784b97e0-ffba-4dfb-a72f-cc0ede2efdd5}, !- Handle
  Surface 8,                              !- Name
  RoofCeiling,                            !- Surface Type
  ,                                       !- Construction Name
  {aba83bff-2efd-48ca-839e-05d576a957c9}, !- Space Name
  Outdoors,                               !- Outside Boundary Condition
  ,                                       !- Outside Boundary Condition Object
  SunExposed,                             !- Sun Exposure
  WindExposed,                            !- Wind Exposure
  ,                                       !- View Factor to Ground
  ,                                       !- Number of Vertices
  1.8288, -11.3588643451371, 2.4384,      !- X,Y,Z Vertex 1 {m}
  1.8288, -13.1876643451371, 2.4384,      !- X,Y,Z Vertex 2 {m}
  6.59383217256854, -13.1876643451371, 2.4384, !- X,Y,Z Vertex 3 {m}
  6.59383217256854, 0, 2.4384,            !- X,Y,Z Vertex 4 {m}
  0, 0, 2.4384,                           !- X,Y,Z Vertex 5 {m}
  0, -11.3588643451371, 2.4384;           !- X,Y,Z Vertex 6 {m}

OS:ThermalZone,
  {88f3ab80-7808-4c70-ade5-fa38f265cedf}, !- Handle
  living zone|unit 2,                     !- Name
  ,                                       !- Multiplier
  ,                                       !- Ceiling Height {m}
  ,                                       !- Volume {m3}
  ,                                       !- Floor Area {m2}
  ,                                       !- Zone Inside Convection Algorithm
  ,                                       !- Zone Outside Convection Algorithm
  ,                                       !- Zone Conditioning Equipment List Name
  {c6b7da82-23da-488d-91e2-a5e2df009c6f}, !- Zone Air Inlet Port List
  {bf28b2e7-481d-4b30-b5cf-54b235743ef3}, !- Zone Air Exhaust Port List
  {b900b972-f607-4af2-ab67-7d108a3d4f59}, !- Zone Air Node Name
  ,                                       !- Zone Return Air Node Name
  ,                                       !- Primary Daylighting Control Name
  ,                                       !- Fraction of Zone Controlled by Primary Daylighting Control
  ,                                       !- Secondary Daylighting Control Name
  ,                                       !- Fraction of Zone Controlled by Secondary Daylighting Control
  ,                                       !- Illuminance Map Name
  ,                                       !- Group Rendering Name
  ,                                       !- Thermostat Name
  No;                                     !- Use Ideal Air Loads

OS:Node,
  {4cecdc63-b249-4f04-869b-a7a976adc239}, !- Handle
  Node 2,                                 !- Name
  {b900b972-f607-4af2-ab67-7d108a3d4f59}, !- Inlet Port
  ;                                       !- Outlet Port

OS:Connection,
  {b900b972-f607-4af2-ab67-7d108a3d4f59}, !- Handle
  {7478ba86-fe34-44d0-961a-9a1983923cc7}, !- Name
  {88f3ab80-7808-4c70-ade5-fa38f265cedf}, !- Source Object
  11,                                     !- Outlet Port
  {4cecdc63-b249-4f04-869b-a7a976adc239}, !- Target Object
  2;                                      !- Inlet Port

OS:PortList,
  {c6b7da82-23da-488d-91e2-a5e2df009c6f}, !- Handle
  {f8ab4cb8-77d6-4576-8909-de862456bf6b}, !- Name
  {88f3ab80-7808-4c70-ade5-fa38f265cedf}; !- HVAC Component

OS:PortList,
  {bf28b2e7-481d-4b30-b5cf-54b235743ef3}, !- Handle
  {c93e1285-9d8b-48ce-9860-fc854e01f909}, !- Name
  {88f3ab80-7808-4c70-ade5-fa38f265cedf}; !- HVAC Component

OS:Sizing:Zone,
  {9c71f8b4-83e2-4939-84de-80259675b7b7}, !- Handle
  {88f3ab80-7808-4c70-ade5-fa38f265cedf}, !- Zone or ZoneList Name
  SupplyAirTemperature,                   !- Zone Cooling Design Supply Air Temperature Input Method
  14,                                     !- Zone Cooling Design Supply Air Temperature {C}
  11.11,                                  !- Zone Cooling Design Supply Air Temperature Difference {deltaC}
  SupplyAirTemperature,                   !- Zone Heating Design Supply Air Temperature Input Method
  40,                                     !- Zone Heating Design Supply Air Temperature {C}
  11.11,                                  !- Zone Heating Design Supply Air Temperature Difference {deltaC}
  0.0085,                                 !- Zone Cooling Design Supply Air Humidity Ratio {kg-H2O/kg-air}
  0.008,                                  !- Zone Heating Design Supply Air Humidity Ratio {kg-H2O/kg-air}
  ,                                       !- Zone Heating Sizing Factor
  ,                                       !- Zone Cooling Sizing Factor
  DesignDay,                              !- Cooling Design Air Flow Method
  ,                                       !- Cooling Design Air Flow Rate {m3/s}
  ,                                       !- Cooling Minimum Air Flow per Zone Floor Area {m3/s-m2}
  ,                                       !- Cooling Minimum Air Flow {m3/s}
  ,                                       !- Cooling Minimum Air Flow Fraction
  DesignDay,                              !- Heating Design Air Flow Method
  ,                                       !- Heating Design Air Flow Rate {m3/s}
  ,                                       !- Heating Maximum Air Flow per Zone Floor Area {m3/s-m2}
  ,                                       !- Heating Maximum Air Flow {m3/s}
  ,                                       !- Heating Maximum Air Flow Fraction
  ,                                       !- Design Zone Air Distribution Effectiveness in Cooling Mode
  ,                                       !- Design Zone Air Distribution Effectiveness in Heating Mode
  No,                                     !- Account for Dedicated Outdoor Air System
  NeutralSupplyAir,                       !- Dedicated Outdoor Air System Control Strategy
  autosize,                               !- Dedicated Outdoor Air Low Setpoint Temperature for Design {C}
  autosize;                               !- Dedicated Outdoor Air High Setpoint Temperature for Design {C}

OS:ZoneHVAC:EquipmentList,
  {e2706222-1eb6-4cf9-b6cf-d2a6c479d44b}, !- Handle
  Zone HVAC Equipment List 2,             !- Name
  {88f3ab80-7808-4c70-ade5-fa38f265cedf}; !- Thermal Zone

OS:Space,
  {edaba6bf-1c50-4856-a567-035b3394e9d7}, !- Handle
  living space|unit 2,                    !- Name
  ,                                       !- Space Type Name
  ,                                       !- Default Construction Set Name
  ,                                       !- Default Schedule Set Name
  ,                                       !- Direction of Relative North {deg}
  ,                                       !- X Origin {m}
  ,                                       !- Y Origin {m}
  ,                                       !- Z Origin {m}
  ,                                       !- Building Story Name
  {88f3ab80-7808-4c70-ade5-fa38f265cedf}, !- Thermal Zone Name
  ,                                       !- Part of Total Floor Area
  ,                                       !- Design Specification Outdoor Air Object Name
  {fd3db14f-9421-46cb-b222-327f770cdf5b}; !- Building Unit Name

OS:Surface,
  {7a71a5c5-f25f-4b20-bea2-9b84395b0f8d}, !- Handle
  Surface 9,                              !- Name
  Floor,                                  !- Surface Type
  ,                                       !- Construction Name
  {edaba6bf-1c50-4856-a567-035b3394e9d7}, !- Space Name
  Ground,                                 !- Outside Boundary Condition
  ,                                       !- Outside Boundary Condition Object
  NoSun,                                  !- Sun Exposure
  NoWind,                                 !- Wind Exposure
  ,                                       !- View Factor to Ground
  ,                                       !- Number of Vertices
  0, 3.048, 0,                            !- X,Y,Z Vertex 1 {m}
  0, 16.2356643451371, 0,                 !- X,Y,Z Vertex 2 {m}
  4.76503217256854, 16.2356643451371, 0,  !- X,Y,Z Vertex 3 {m}
  4.76503217256854, 14.4068643451371, 0,  !- X,Y,Z Vertex 4 {m}
  6.59383217256854, 14.4068643451371, 0,  !- X,Y,Z Vertex 5 {m}
  6.59383217256854, 3.048, 0;             !- X,Y,Z Vertex 6 {m}

OS:Surface,
  {e1e0b0c9-6139-49ba-9a05-19efaecf310c}, !- Handle
  Surface 10,                             !- Name
  Wall,                                   !- Surface Type
  ,                                       !- Construction Name
  {edaba6bf-1c50-4856-a567-035b3394e9d7}, !- Space Name
  Outdoors,                               !- Outside Boundary Condition
  ,                                       !- Outside Boundary Condition Object
  SunExposed,                             !- Sun Exposure
  WindExposed,                            !- Wind Exposure
  ,                                       !- View Factor to Ground
  ,                                       !- Number of Vertices
  0, 16.2356643451371, 2.4384,            !- X,Y,Z Vertex 1 {m}
  0, 16.2356643451371, 0,                 !- X,Y,Z Vertex 2 {m}
  0, 3.048, 0,                            !- X,Y,Z Vertex 3 {m}
  0, 3.048, 2.4384;                       !- X,Y,Z Vertex 4 {m}

OS:Surface,
  {3e0fa575-eaf3-4814-be05-c506e21e1a5d}, !- Handle
  Surface 11,                             !- Name
  Wall,                                   !- Surface Type
  ,                                       !- Construction Name
  {edaba6bf-1c50-4856-a567-035b3394e9d7}, !- Space Name
  Outdoors,                               !- Outside Boundary Condition
  ,                                       !- Outside Boundary Condition Object
  SunExposed,                             !- Sun Exposure
  WindExposed,                            !- Wind Exposure
  ,                                       !- View Factor to Ground
  ,                                       !- Number of Vertices
  4.76503217256854, 16.2356643451371, 2.4384, !- X,Y,Z Vertex 1 {m}
  4.76503217256854, 16.2356643451371, 0,  !- X,Y,Z Vertex 2 {m}
  0, 16.2356643451371, 0,                 !- X,Y,Z Vertex 3 {m}
  0, 16.2356643451371, 2.4384;            !- X,Y,Z Vertex 4 {m}

OS:Surface,
  {eb7d9278-b547-4fe1-9296-1d9313a450d4}, !- Handle
  Surface 12,                             !- Name
  Wall,                                   !- Surface Type
  ,                                       !- Construction Name
  {edaba6bf-1c50-4856-a567-035b3394e9d7}, !- Space Name
  Outdoors,                               !- Outside Boundary Condition
  ,                                       !- Outside Boundary Condition Object
  SunExposed,                             !- Sun Exposure
  WindExposed,                            !- Wind Exposure
  ,                                       !- View Factor to Ground
  ,                                       !- Number of Vertices
  4.76503217256854, 14.4068643451371, 2.4384, !- X,Y,Z Vertex 1 {m}
  4.76503217256854, 14.4068643451371, 0,  !- X,Y,Z Vertex 2 {m}
  4.76503217256854, 16.2356643451371, 0,  !- X,Y,Z Vertex 3 {m}
  4.76503217256854, 16.2356643451371, 2.4384; !- X,Y,Z Vertex 4 {m}

OS:Surface,
  {fc0f656e-89cc-4881-87a5-6c2101bebe02}, !- Handle
  Surface 13,                             !- Name
  Wall,                                   !- Surface Type
  ,                                       !- Construction Name
  {edaba6bf-1c50-4856-a567-035b3394e9d7}, !- Space Name
  Outdoors,                               !- Outside Boundary Condition
  ,                                       !- Outside Boundary Condition Object
  SunExposed,                             !- Sun Exposure
  WindExposed,                            !- Wind Exposure
  ,                                       !- View Factor to Ground
  ,                                       !- Number of Vertices
  6.59383217256854, 14.4068643451371, 2.4384, !- X,Y,Z Vertex 1 {m}
  6.59383217256854, 14.4068643451371, 0,  !- X,Y,Z Vertex 2 {m}
  4.76503217256854, 14.4068643451371, 0,  !- X,Y,Z Vertex 3 {m}
  4.76503217256854, 14.4068643451371, 2.4384; !- X,Y,Z Vertex 4 {m}

OS:Surface,
  {f656ee70-4534-4ff0-ac1e-5155de929b3b}, !- Handle
  Surface 14,                             !- Name
  Wall,                                   !- Surface Type
  ,                                       !- Construction Name
  {edaba6bf-1c50-4856-a567-035b3394e9d7}, !- Space Name
  Surface,                                !- Outside Boundary Condition
  {3d07e08b-883f-46b7-a419-8952cda9d724}, !- Outside Boundary Condition Object
  NoSun,                                  !- Sun Exposure
  NoWind,                                 !- Wind Exposure
  ,                                       !- View Factor to Ground
  ,                                       !- Number of Vertices
  6.59383217256854, 3.048, 2.4384,        !- X,Y,Z Vertex 1 {m}
  6.59383217256854, 3.048, 0,             !- X,Y,Z Vertex 2 {m}
  6.59383217256854, 14.4068643451371, 0,  !- X,Y,Z Vertex 3 {m}
  6.59383217256854, 14.4068643451371, 2.4384; !- X,Y,Z Vertex 4 {m}

OS:Surface,
  {17ac5600-9faf-4387-8473-bd859e743b50}, !- Handle
  Surface 15,                             !- Name
  Wall,                                   !- Surface Type
  ,                                       !- Construction Name
  {edaba6bf-1c50-4856-a567-035b3394e9d7}, !- Space Name