!- NOTE: Auto-generated from /test/osw_files/MF_8units_1story_SL_InsetLeft.osw

OS:Version,
  {75658c42-f886-4f97-9f95-19d4a8424773}, !- Handle
  2.2.0;                                  !- Version Identifier

OS:Building,
  {bf305633-c5a1-4881-9edf-ca5e1a8e1274}, !- Handle
  Building,                               !- Name
  ,                                       !- Building Sector Type
  ,                                       !- North Axis {deg}
  ,                                       !- Nominal Floor to Floor Height {m}
  ,                                       !- Space Type Name
  ,                                       !- Default Construction Set Name
  ,                                       !- Default Schedule Set Name
  1,                                      !- Standards Number of Stories
  1,                                      !- Standards Number of Above Ground Stories
  multifamily,                            !- Standards Building Type
  8;                                      !- Standards Number of Living Units

OS:YearDescription,
  {513d8dda-86cb-442a-b01c-1f7f0e0ac70e}; !- Handle

OS:SimulationControl,
  {2c487a4c-bac9-4ac5-b669-1e49d9da7c2b}, !- Handle
  ,                                       !- Do Zone Sizing Calculation
  ,                                       !- Do System Sizing Calculation
  ,                                       !- Do Plant Sizing Calculation
  No,                                     !- Run Simulation for Sizing Periods
  ;                                       !- Run Simulation for Weather File Run Periods

OS:Timestep,
  {4ebc9f1e-4707-402e-9844-67eb1ffbd522}, !- Handle
  6;                                      !- Number of Timesteps per Hour

OS:RunPeriod,
  {28df894d-6af9-4fb8-8f56-df1753344aa3}, !- Handle
  Run Period,                             !- Name
  1,                                      !- Begin Month
  1,                                      !- Begin Day of Month
  12,                                     !- End Month
  31,                                     !- End Day of Month
  ,                                       !- Use Weather File Holidays and Special Days
  ,                                       !- Use Weather File Daylight Saving Period
  ,                                       !- Apply Weekend Holiday Rule
  ,                                       !- Use Weather File Rain Indicators
  ,                                       !- Use Weather File Snow Indicators
  ;                                       !- Number of Times Runperiod to be Repeated

OS:Sizing:Parameters,
  {dde5af6f-7923-4600-a28a-7556673a0266}, !- Handle
  1.0,                                    !- Heating Sizing Factor
  1.0;                                    !- Cooling Sizing Factor

OS:ShadowCalculation,
  {ca758bea-4416-4626-9bba-3d8795c79bd6}, !- Handle
  20,                                     !- Calculation Frequency
  200;                                    !- Maximum Figures in Shadow Overlap Calculations

OS:SurfaceConvectionAlgorithm:Inside,
  {aaabfc36-718a-4ab0-b622-f186ebb45230}, !- Handle
  TARP;                                   !- Algorithm

OS:SurfaceConvectionAlgorithm:Outside,
  {9a0a9f6f-4bbd-4b12-a121-9492a1fcd7d6}, !- Handle
  DOE-2;                                  !- Algorithm

OS:HeatBalanceAlgorithm,
  {9d93e563-e1e0-46d7-9e39-d1c8aceb7212}, !- Handle
  ConductionTransferFunction,             !- Algorithm
  200;                                    !- Surface Temperature Upper Limit {C}

OS:ZoneCapacitanceMultiplier:ResearchSpecial,
  {6bfced16-b16f-47f6-8223-f7e267d75d19}, !- Handle
  ,                                       !- Temperature Capacity Multiplier
  15,                                     !- Humidity Capacity Multiplier
  ;                                       !- Carbon Dioxide Capacity Multiplier

OS:ThermalZone,
  {122e346b-0e57-4ad7-aafd-04475f56e64e}, !- Handle
  Thermal Zone 1,                         !- Name
  ,                                       !- Multiplier
  ,                                       !- Ceiling Height {m}
  ,                                       !- Volume {m3}
  ,                                       !- Floor Area {m2}
  ,                                       !- Zone Inside Convection Algorithm
  ,                                       !- Zone Outside Convection Algorithm
  ,                                       !- Zone Conditioning Equipment List Name
  {f6b69533-603b-4a7b-879e-d436bce09178}, !- Zone Air Inlet Port List
  {f7318bac-4676-47b3-9eaf-3b0cdc737346}, !- Zone Air Exhaust Port List
  {d3817ba7-5d82-43f4-9a64-74080b6dd073}, !- Zone Air Node Name
  ,                                       !- Zone Return Air Node Name
  ,                                       !- Primary Daylighting Control Name
  ,                                       !- Fraction of Zone Controlled by Primary Daylighting Control
  ,                                       !- Secondary Daylighting Control Name
  ,                                       !- Fraction of Zone Controlled by Secondary Daylighting Control
  ,                                       !- Illuminance Map Name
  ,                                       !- Group Rendering Name
  ,                                       !- Thermostat Name
  No;                                     !- Use Ideal Air Loads

OS:Node,
  {88eaa923-dd4a-48dd-9738-677291f7f674}, !- Handle
  Node 1,                                 !- Name
  {d3817ba7-5d82-43f4-9a64-74080b6dd073}, !- Inlet Port
  ;                                       !- Outlet Port

OS:Connection,
  {d3817ba7-5d82-43f4-9a64-74080b6dd073}, !- Handle
  {0caf5158-7734-4405-baa8-8049a9a7284e}, !- Name
  {122e346b-0e57-4ad7-aafd-04475f56e64e}, !- Source Object
  11,                                     !- Outlet Port
  {88eaa923-dd4a-48dd-9738-677291f7f674}, !- Target Object
  2;                                      !- Inlet Port

OS:PortList,
  {f6b69533-603b-4a7b-879e-d436bce09178}, !- Handle
  {28d3fbda-083d-4868-84a7-9f810160cd1e}, !- Name
  {122e346b-0e57-4ad7-aafd-04475f56e64e}; !- HVAC Component

OS:PortList,
  {f7318bac-4676-47b3-9eaf-3b0cdc737346}, !- Handle
  {1d623103-cec6-4008-ac2a-dc5cadca645a}, !- Name
  {122e346b-0e57-4ad7-aafd-04475f56e64e}; !- HVAC Component

OS:Sizing:Zone,
  {0a6ea2b0-75ed-4cd2-8ba6-18ee7ecba145}, !- Handle
  {122e346b-0e57-4ad7-aafd-04475f56e64e}, !- Zone or ZoneList Name
  SupplyAirTemperature,                   !- Zone Cooling Design Supply Air Temperature Input Method
  14,                                     !- Zone Cooling Design Supply Air Temperature {C}
  11.11,                                  !- Zone Cooling Design Supply Air Temperature Difference {deltaC}
  SupplyAirTemperature,                   !- Zone Heating Design Supply Air Temperature Input Method
  40,                                     !- Zone Heating Design Supply Air Temperature {C}
  11.11,                                  !- Zone Heating Design Supply Air Temperature Difference {deltaC}
  0.0085,                                 !- Zone Cooling Design Supply Air Humidity Ratio {kg-H2O/kg-air}
  0.008,                                  !- Zone Heating Design Supply Air Humidity Ratio {kg-H2O/kg-air}
  ,                                       !- Zone Heating Sizing Factor
  ,                                       !- Zone Cooling Sizing Factor
  DesignDay,                              !- Cooling Design Air Flow Method
  ,                                       !- Cooling Design Air Flow Rate {m3/s}
  ,                                       !- Cooling Minimum Air Flow per Zone Floor Area {m3/s-m2}
  ,                                       !- Cooling Minimum Air Flow {m3/s}
  ,                                       !- Cooling Minimum Air Flow Fraction
  DesignDay,                              !- Heating Design Air Flow Method
  ,                                       !- Heating Design Air Flow Rate {m3/s}
  ,                                       !- Heating Maximum Air Flow per Zone Floor Area {m3/s-m2}
  ,                                       !- Heating Maximum Air Flow {m3/s}
  ,                                       !- Heating Maximum Air Flow Fraction
  ,                                       !- Design Zone Air Distribution Effectiveness in Cooling Mode
  ,                                       !- Design Zone Air Distribution Effectiveness in Heating Mode
  No,                                     !- Account for Dedicated Outdoor Air System
  NeutralSupplyAir,                       !- Dedicated Outdoor Air System Control Strategy
  autosize,                               !- Dedicated Outdoor Air Low Setpoint Temperature for Design {C}
  autosize;                               !- Dedicated Outdoor Air High Setpoint Temperature for Design {C}

OS:ZoneHVAC:EquipmentList,
  {bd07b442-cc98-454b-938c-9ab5dc633303}, !- Handle
  Zone HVAC Equipment List 1,             !- Name
  {122e346b-0e57-4ad7-aafd-04475f56e64e}; !- Thermal Zone

OS:Space,
  {a5babec0-261e-4afc-9fa1-409e0615d81a}, !- Handle
  Space 1,                                !- Name
  {7077b1d5-03c5-4254-b282-4599d3e9e0c5}, !- Space Type Name
  ,                                       !- Default Construction Set Name
  ,                                       !- Default Schedule Set Name
  ,                                       !- Direction of Relative North {deg}
  ,                                       !- X Origin {m}
  ,                                       !- Y Origin {m}
  ,                                       !- Z Origin {m}
  ,                                       !- Building Story Name
  {122e346b-0e57-4ad7-aafd-04475f56e64e}, !- Thermal Zone Name
  ,                                       !- Part of Total Floor Area
  ,                                       !- Design Specification Outdoor Air Object Name
  {8a1b9cec-a119-4c01-a3f8-25491a882871}; !- Building Unit Name

OS:Surface,
  {6c429a17-60c0-406e-bbe8-4595d0be09de}, !- Handle
  Surface 1,                              !- Name
  Floor,                                  !- Surface Type
  ,                                       !- Construction Name
  {a5babec0-261e-4afc-9fa1-409e0615d81a}, !- Space Name
  Ground,                                 !- Outside Boundary Condition
  ,                                       !- Outside Boundary Condition Object
  NoSun,                                  !- Sun Exposure
  NoWind,                                 !- Wind Exposure
  ,                                       !- View Factor to Ground
  ,                                       !- Number of Vertices
  0, -11.3588643451371, 0,                !- X,Y,Z Vertex 1 {m}
  0, 0, 0,                                !- X,Y,Z Vertex 2 {m}
  6.59383217256854, 0, 0,                 !- X,Y,Z Vertex 3 {m}
  6.59383217256854, -13.1876643451371, 0, !- X,Y,Z Vertex 4 {m}
  1.8288, -13.1876643451371, 0,           !- X,Y,Z Vertex 5 {m}
  1.8288, -11.3588643451371, 0;           !- X,Y,Z Vertex 6 {m}

OS:Surface,
  {743c0f74-1196-401d-b1ff-5c62c6ef888d}, !- Handle
  Surface 2,                              !- Name
  Wall,                                   !- Surface Type
  ,                                       !- Construction Name
  {a5babec0-261e-4afc-9fa1-409e0615d81a}, !- Space Name
  Outdoors,                               !- Outside Boundary Condition
  ,                                       !- Outside Boundary Condition Object
  SunExposed,                             !- Sun Exposure
  WindExposed,                            !- Wind Exposure
  ,                                       !- View Factor to Ground
  ,                                       !- Number of Vertices
  0, 0, 2.4384,                           !- X,Y,Z Vertex 1 {m}
  0, 0, 0,                                !- X,Y,Z Vertex 2 {m}
  0, -11.3588643451371, 0,                !- X,Y,Z Vertex 3 {m}
  0, -11.3588643451371, 2.4384;           !- X,Y,Z Vertex 4 {m}

OS:Surface,
  {1d851923-4b27-415f-8d36-2776160a23b4}, !- Handle
  Surface 3,                              !- Name
  Wall,                                   !- Surface Type
  ,                                       !- Construction Name
  {a5babec0-261e-4afc-9fa1-409e0615d81a}, !- Space Name
  Adiabatic,                              !- Outside Boundary Condition
  ,                                       !- Outside Boundary Condition Object
  NoSun,                                  !- Sun Exposure
  NoWind,                                 !- Wind Exposure
  ,                                       !- View Factor to Ground
  ,                                       !- Number of Vertices
  6.59383217256854, 0, 2.4384,            !- X,Y,Z Vertex 1 {m}
  6.59383217256854, 0, 0,                 !- X,Y,Z Vertex 2 {m}
  0, 0, 0,                                !- X,Y,Z Vertex 3 {m}
  0, 0, 2.4384;                           !- X,Y,Z Vertex 4 {m}

OS:Surface,
  {d281271f-1336-4ea3-bf4b-ff50c33bdb10}, !- Handle
  Surface 4,                              !- Name
  Wall,                                   !- Surface Type
  ,                                       !- Construction Name
  {a5babec0-261e-4afc-9fa1-409e0615d81a}, !- Space Name
  Surface,                                !- Outside Boundary Condition
  {4068ae8c-4b1d-4201-a51d-85a476d244e5}, !- Outside Boundary Condition Object
  NoSun,                                  !- Sun Exposure
  NoWind,                                 !- Wind Exposure
  ,                                       !- View Factor to Ground
  ,                                       !- Number of Vertices
  6.59383217256854, -11.3588643451371, 2.4384, !- X,Y,Z Vertex 1 {m}
  6.59383217256854, -11.3588643451371, 0, !- X,Y,Z Vertex 2 {m}
  6.59383217256854, 0, 0,                 !- X,Y,Z Vertex 3 {m}
  6.59383217256854, 0, 2.4384;            !- X,Y,Z Vertex 4 {m}

OS:Surface,
  {6daa4b81-dc72-4120-abde-b36fb8c92e6f}, !- Handle
  Surface 5,                              !- Name
  Wall,                                   !- Surface Type
  ,                                       !- Construction Name
  {a5babec0-261e-4afc-9fa1-409e0615d81a}, !- Space Name
  Outdoors,                               !- Outside Boundary Condition
  ,                                       !- Outside Boundary Condition Object
  SunExposed,                             !- Sun Exposure
  WindExposed,                            !- Wind Exposure
  ,                                       !- View Factor to Ground
  ,                                       !- Number of Vertices
  1.8288, -13.1876643451371, 2.4384,      !- X,Y,Z Vertex 1 {m}
  1.8288, -13.1876643451371, 0,           !- X,Y,Z Vertex 2 {m}
  6.59383217256854, -13.1876643451371, 0, !- X,Y,Z Vertex 3 {m}
  6.59383217256854, -13.1876643451371, 2.4384; !- X,Y,Z Vertex 4 {m}

OS:Surface,
  {b017bc53-0b85-4aee-9fbf-c9aeb6424300}, !- Handle
  Surface 6,                              !- Name
  Wall,                                   !- Surface Type
  ,                                       !- Construction Name
  {a5babec0-261e-4afc-9fa1-409e0615d81a}, !- Space Name
  Outdoors,                               !- Outside Boundary Condition
  ,                                       !- Outside Boundary Condition Object
  SunExposed,                             !- Sun Exposure
  WindExposed,                            !- Wind Exposure
  ,                                       !- View Factor to Ground
  ,                                       !- Number of Vertices
  1.8288, -11.3588643451371, 2.4384,      !- X,Y,Z Vertex 1 {m}
  1.8288, -11.3588643451371, 0,           !- X,Y,Z Vertex 2 {m}
  1.8288, -13.1876643451371, 0,           !- X,Y,Z Vertex 3 {m}
  1.8288, -13.1876643451371, 2.4384;      !- X,Y,Z Vertex 4 {m}

OS:Surface,
  {8c97251c-e332-4733-ada9-736d12469414}, !- Handle
  Surface 7,                              !- Name
  Wall,                                   !- Surface Type
  ,                                       !- Construction Name
  {a5babec0-261e-4afc-9fa1-409e0615d81a}, !- Space Name
  Outdoors,                               !- Outside Boundary Condition
  ,                                       !- Outside Boundary Condition Object
  SunExposed,                             !- Sun Exposure
  WindExposed,                            !- Wind Exposure
  ,                                       !- View Factor to Ground
  ,                                       !- Number of Vertices
  0, -11.3588643451371, 2.4384,           !- X,Y,Z Vertex 1 {m}
  0, -11.3588643451371, 0,                !- X,Y,Z Vertex 2 {m}
  1.8288, -11.3588643451371, 0,           !- X,Y,Z Vertex 3 {m}
  1.8288, -11.3588643451371, 2.4384;      !- X,Y,Z Vertex 4 {m}

OS:Surface,
  {5b57578a-e4be-41dc-86f0-404291287bd7}, !- Handle
  Surface 8,                              !- Name
  RoofCeiling,                            !- Surface Type
  ,                                       !- Construction Name
  {a5babec0-261e-4afc-9fa1-409e0615d81a}, !- Space Name
  Outdoors,                               !- Outside Boundary Condition
  ,                                       !- Outside Boundary Condition Object
  SunExposed,                             !- Sun Exposure
  WindExposed,                            !- Wind Exposure
  ,                                       !- View Factor to Ground
  ,                                       !- Number of Vertices
  1.8288, -11.3588643451371, 2.4384,      !- X,Y,Z Vertex 1 {m}
  1.8288, -13.1876643451371, 2.4384,      !- X,Y,Z Vertex 2 {m}
  6.59383217256854, -13.1876643451371, 2.4384, !- X,Y,Z Vertex 3 {m}
  6.59383217256854, 0, 2.4384,            !- X,Y,Z Vertex 4 {m}
  0, 0, 2.4384,                           !- X,Y,Z Vertex 5 {m}
  0, -11.3588643451371, 2.4384;           !- X,Y,Z Vertex 6 {m}

OS:SpaceType,
  {7077b1d5-03c5-4254-b282-4599d3e9e0c5}, !- Handle
  Space Type 1,                           !- Name
  ,                                       !- Default Construction Set Name
  ,                                       !- Default Schedule Set Name
  ,                                       !- Group Rendering Name
  ,                                       !- Design Specification Outdoor Air Object Name
  ,                                       !- Standards Building Type
  living;                                 !- Standards Space Type

OS:ThermalZone,
  {ee9915c8-39db-4fc0-b075-d6547eacc88b}, !- Handle
  Thermal Zone 2,                         !- Name
  ,                                       !- Multiplier
  ,                                       !- Ceiling Height {m}
  ,                                       !- Volume {m3}
  ,                                       !- Floor Area {m2}
  ,                                       !- Zone Inside Convection Algorithm
  ,                                       !- Zone Outside Convection Algorithm
  ,                                       !- Zone Conditioning Equipment List Name
  {5f14d2ae-f165-42d8-943a-17b8de388d63}, !- Zone Air Inlet Port List
  {9120c1d2-2251-4edb-a6e8-96602d021efe}, !- Zone Air Exhaust Port List
  {780b49b3-ed70-4d25-99ee-6045915096ec}, !- Zone Air Node Name
  ,                                       !- Zone Return Air Node Name
  ,                                       !- Primary Daylighting Control Name
  ,                                       !- Fraction of Zone Controlled by Primary Daylighting Control
  ,                                       !- Secondary Daylighting Control Name
  ,                                       !- Fraction of Zone Controlled by Secondary Daylighting Control
  ,                                       !- Illuminance Map Name
  ,                                       !- Group Rendering Name
  ,                                       !- Thermostat Name
  No;                                     !- Use Ideal Air Loads

OS:Node,
  {399784c5-f9a0-457d-8f74-1f42604cddf6}, !- Handle
  Node 2,                                 !- Name
  {780b49b3-ed70-4d25-99ee-6045915096ec}, !- Inlet Port
  ;                                       !- Outlet Port

OS:Connection,
  {780b49b3-ed70-4d25-99ee-6045915096ec}, !- Handle
  {1fba31d2-4061-43c2-8f27-a7658509c86f}, !- Name
  {ee9915c8-39db-4fc0-b075-d6547eacc88b}, !- Source Object
  11,                                     !- Outlet Port
  {399784c5-f9a0-457d-8f74-1f42604cddf6}, !- Target Object
  2;                                      !- Inlet Port

OS:PortList,
  {5f14d2ae-f165-42d8-943a-17b8de388d63}, !- Handle
  {b51d829c-350c-418a-815a-cc4d3d7f716b}, !- Name
  {ee9915c8-39db-4fc0-b075-d6547eacc88b}; !- HVAC Component

OS:PortList,
  {9120c1d2-2251-4edb-a6e8-96602d021efe}, !- Handle
  {12b1686f-7d75-47f6-87ca-15bf6bf56505}, !- Name
  {ee9915c8-39db-4fc0-b075-d6547eacc88b}; !- HVAC Component

OS:Sizing:Zone,
  {d0ef1316-27c5-4a51-b028-a9873de100af}, !- Handle
  {ee9915c8-39db-4fc0-b075-d6547eacc88b}, !- Zone or ZoneList Name
  SupplyAirTemperature,                   !- Zone Cooling Design Supply Air Temperature Input Method
  14,                                     !- Zone Cooling Design Supply Air Temperature {C}
  11.11,                                  !- Zone Cooling Design Supply Air Temperature Difference {deltaC}
  SupplyAirTemperature,                   !- Zone Heating Design Supply Air Temperature Input Method
  40,                                     !- Zone Heating Design Supply Air Temperature {C}
  11.11,                                  !- Zone Heating Design Supply Air Temperature Difference {deltaC}
  0.0085,                                 !- Zone Cooling Design Supply Air Humidity Ratio {kg-H2O/kg-air}
  0.008,                                  !- Zone Heating Design Supply Air Humidity Ratio {kg-H2O/kg-air}
  ,                                       !- Zone Heating Sizing Factor
  ,                                       !- Zone Cooling Sizing Factor
  DesignDay,                              !- Cooling Design Air Flow Method
  ,                                       !- Cooling Design Air Flow Rate {m3/s}
  ,                                       !- Cooling Minimum Air Flow per Zone Floor Area {m3/s-m2}
  ,                                       !- Cooling Minimum Air Flow {m3/s}
  ,                                       !- Cooling Minimum Air Flow Fraction
  DesignDay,                              !- Heating Design Air Flow Method
  ,                                       !- Heating Design Air Flow Rate {m3/s}
  ,                                       !- Heating Maximum Air Flow per Zone Floor Area {m3/s-m2}
  ,                                       !- Heating Maximum Air Flow {m3/s}
  ,                                       !- Heating Maximum Air Flow Fraction
  ,                                       !- Design Zone Air Distribution Effectiveness in Cooling Mode
  ,                                       !- Design Zone Air Distribution Effectiveness in Heating Mode
  No,                                     !- Account for Dedicated Outdoor Air System
  NeutralSupplyAir,                       !- Dedicated Outdoor Air System Control Strategy
  autosize,                               !- Dedicated Outdoor Air Low Setpoint Temperature for Design {C}
  autosize;                               !- Dedicated Outdoor Air High Setpoint Temperature for Design {C}

OS:ZoneHVAC:EquipmentList,
  {df24a8c4-673e-48d5-87e6-f215a9d6bedc}, !- Handle
  Zone HVAC Equipment List 2,             !- Name
  {ee9915c8-39db-4fc0-b075-d6547eacc88b}; !- Thermal Zone

OS:Space,
  {8d2d29ee-c976-4c68-859d-9d9bb9f8f2e8}, !- Handle
  Space 2,                                !- Name
  {7077b1d5-03c5-4254-b282-4599d3e9e0c5}, !- Space Type Name
  ,                                       !- Default Construction Set Name
  ,                                       !- Default Schedule Set Name
  ,                                       !- Direction of Relative North {deg}
  ,                                       !- X Origin {m}
  ,                                       !- Y Origin {m}
  ,                                       !- Z Origin {m}
  ,                                       !- Building Story Name
  {ee9915c8-39db-4fc0-b075-d6547eacc88b}, !- Thermal Zone Name
  ,                                       !- Part of Total Floor Area
  ,                                       !- Design Specification Outdoor Air Object Name
  {1c5c0292-80aa-4eca-9aac-1597fd1c06f6}; !- Building Unit Name

OS:Surface,
  {c2bb0dda-9e75-44be-a6dd-0e30f9ad70ca}, !- Handle
  Surface 9,                              !- Name
  Floor,                                  !- Surface Type
  ,                                       !- Construction Name
  {8d2d29ee-c976-4c68-859d-9d9bb9f8f2e8}, !- Space Name
  Ground,                                 !- Outside Boundary Condition
  ,                                       !- Outside Boundary Condition Object
  NoSun,                                  !- Sun Exposure
  NoWind,                                 !- Wind Exposure
  ,                                       !- View Factor to Ground
  ,                                       !- Number of Vertices
  0, 3.048, 0,                            !- X,Y,Z Vertex 1 {m}
  0, 16.2356643451371, 0,                 !- X,Y,Z Vertex 2 {m}
  4.76503217256854, 16.2356643451371, 0,  !- X,Y,Z Vertex 3 {m}
  4.76503217256854, 14.4068643451371, 0,  !- X,Y,Z Vertex 4 {m}
  6.59383217256854, 14.4068643451371, 0,  !- X,Y,Z Vertex 5 {m}
  6.59383217256854, 3.048, 0;             !- X,Y,Z Vertex 6 {m}

OS:Surface,
  {c1b52c66-0251-4242-980c-435592446e9d}, !- Handle
  Surface 10,                             !- Name
  Wall,                                   !- Surface Type
  ,                                       !- Construction Name
  {8d2d29ee-c976-4c68-859d-9d9bb9f8f2e8}, !- Space Name
  Outdoors,                               !- Outside Boundary Condition
  ,                                       !- Outside Boundary Condition Object
  SunExposed,                             !- Sun Exposure
  WindExposed,                            !- Wind Exposure
  ,                                       !- View Factor to Ground
  ,                                       !- Number of Vertices
  0, 16.2356643451371, 2.4384,            !- X,Y,Z Vertex 1 {m}
  0, 16.2356643451371, 0,                 !- X,Y,Z Vertex 2 {m}
  0, 3.048, 0,                            !- X,Y,Z Vertex 3 {m}
  0, 3.048, 2.4384;                       !- X,Y,Z Vertex 4 {m}

OS:Surface,
  {1dccabda-35ac-4c60-b031-c3c3bb526aad}, !- Handle
  Surface 11,                             !- Name
  Wall,                                   !- Surface Type
  ,                                       !- Construction Name
  {8d2d29ee-c976-4c68-859d-9d9bb9f8f2e8}, !- Space Name
  Outdoors,                               !- Outside Boundary Condition
  ,                                       !- Outside Boundary Condition Object
  SunExposed,                             !- Sun Exposure
  WindExposed,                            !- Wind Exposure
  ,                                       !- View Factor to Ground
  ,                                       !- Number of Vertices
  4.76503217256854, 16.2356643451371, 2.4384, !- X,Y,Z Vertex 1 {m}
  4.76503217256854, 16.2356643451371, 0,  !- X,Y,Z Vertex 2 {m}
  0, 16.2356643451371, 0,                 !- X,Y,Z Vertex 3 {m}
  0, 16.2356643451371, 2.4384;            !- X,Y,Z Vertex 4 {m}

OS:Surface,
  {a2c27ddd-fb8d-4b20-acf0-88f8fd935559}, !- Handle
  Surface 12,                             !- Name
  Wall,                                   !- Surface Type
  ,                                       !- Construction Name
  {8d2d29ee-c976-4c68-859d-9d9bb9f8f2e8}, !- Space Name
  Outdoors,                               !- Outside Boundary Condition
  ,                                       !- Outside Boundary Condition Object
  SunExposed,                             !- Sun Exposure
  WindExposed,                            !- Wind Exposure
  ,                                       !- View Factor to Ground
  ,                                       !- Number of Vertices
  4.76503217256854, 14.4068643451371, 2.4384, !- X,Y,Z Vertex 1 {m}
  4.76503217256854, 14.4068643451371, 0,  !- X,Y,Z Vertex 2 {m}
  4.76503217256854, 16.2356643451371, 0,  !- X,Y,Z Vertex 3 {m}
  4.76503217256854, 16.2356643451371, 2.4384; !- X,Y,Z Vertex 4 {m}

OS:Surface,
  {91da3b50-235b-44bb-82cb-928d1fcd6197}, !- Handle
  Surface 13,                             !- Name
  Wall,                                   !- Surface Type
  ,                                       !- Construction Name
  {8d2d29ee-c976-4c68-859d-9d9bb9f8f2e8}, !- Space Name
  Outdoors,                               !- Outside Boundary Condition
  ,                                       !- Outside Boundary Condition Object
  SunExposed,                             !- Sun Exposure
  WindExposed,                            !- Wind Exposure
  ,                                       !- View Factor to Ground
  ,                                       !- Number of Vertices
  6.59383217256854, 14.4068643451371, 2.4384, !- X,Y,Z Vertex 1 {m}
  6.59383217256854, 14.4068643451371, 0,  !- X,Y,Z Vertex 2 {m}
  4.76503217256854, 14.4068643451371, 0,  !- X,Y,Z Vertex 3 {m}
  4.76503217256854, 14.4068643451371, 2.4384; !- X,Y,Z Vertex 4 {m}

OS:Surface,
  {26e037ea-391b-4ef6-b2d4-a03ad091e198}, !- Handle
  Surface 14,                             !- Name
  Wall,                                   !- Surface Type
  ,                                       !- Construction Name
  {8d2d29ee-c976-4c68-859d-9d9bb9f8f2e8}, !- Space Name
  Surface,                                !- Outside Boundary Condition
  {ea7ff2ef-7384-4a48-a233-4dde59fd1a09}, !- Outside Boundary Condition Object
  NoSun,                                  !- Sun Exposure
  NoWind,                                 !- Wind Exposure
  ,                                       !- View Factor to Ground
  ,                                       !- Number of Vertices