!- NOTE: Auto-generated from /test/osw_files/SFA_4units_1story_FB_UA_Denver_FlatRoof.osw

OS:Version,
  {02191e5a-bd86-43d7-9ef5-767e86ae5e30}, !- Handle
  2.4.0;                                  !- Version Identifier

OS:Building,
  {bf305633-c5a1-4881-9edf-ca5e1a8e1274}, !- Handle
  Building,                               !- Name
  ,                                       !- Building Sector Type
  ,                                       !- North Axis {deg}
  ,                                       !- Nominal Floor to Floor Height {m}
  ,                                       !- Space Type Name
  ,                                       !- Default Construction Set Name
  ,                                       !- Default Schedule Set Name
  2,                                      !- Standards Number of Stories
  1,                                      !- Standards Number of Above Ground Stories
  singlefamilyttached,                    !- Standards Building Type
  4;                                      !- Standards Number of Living Units

OS:YearDescription,
  {513d8dda-86cb-442a-b01c-1f7f0e0ac70e}; !- Handle

OS:SimulationControl,
  {2c487a4c-bac9-4ac5-b669-1e49d9da7c2b}, !- Handle
  ,                                       !- Do Zone Sizing Calculation
  ,                                       !- Do System Sizing Calculation
  ,                                       !- Do Plant Sizing Calculation
  No,                                     !- Run Simulation for Sizing Periods
  ;                                       !- Run Simulation for Weather File Run Periods

OS:Timestep,
  {4ebc9f1e-4707-402e-9844-67eb1ffbd522}, !- Handle
  6;                                      !- Number of Timesteps per Hour

OS:RunPeriod,
  {28df894d-6af9-4fb8-8f56-df1753344aa3}, !- Handle
  Run Period,                             !- Name
  1,                                      !- Begin Month
  1,                                      !- Begin Day of Month
  12,                                     !- End Month
  31,                                     !- End Day of Month
  ,                                       !- Use Weather File Holidays and Special Days
  ,                                       !- Use Weather File Daylight Saving Period
  ,                                       !- Apply Weekend Holiday Rule
  ,                                       !- Use Weather File Rain Indicators
  ,                                       !- Use Weather File Snow Indicators
  ;                                       !- Number of Times Runperiod to be Repeated

OS:Sizing:Parameters,
  {dde5af6f-7923-4600-a28a-7556673a0266}, !- Handle
  1.0,                                    !- Heating Sizing Factor
  1.0;                                    !- Cooling Sizing Factor

OS:ShadowCalculation,
  {ca758bea-4416-4626-9bba-3d8795c79bd6}, !- Handle
  20,                                     !- Calculation Frequency
  200;                                    !- Maximum Figures in Shadow Overlap Calculations

OS:SurfaceConvectionAlgorithm:Inside,
  {aaabfc36-718a-4ab0-b622-f186ebb45230}, !- Handle
  TARP;                                   !- Algorithm

OS:SurfaceConvectionAlgorithm:Outside,
  {9a0a9f6f-4bbd-4b12-a121-9492a1fcd7d6}, !- Handle
  DOE-2;                                  !- Algorithm

OS:HeatBalanceAlgorithm,
  {9d93e563-e1e0-46d7-9e39-d1c8aceb7212}, !- Handle
  ConductionTransferFunction,             !- Algorithm
  200;                                    !- Surface Temperature Upper Limit {C}

OS:ZoneCapacitanceMultiplier:ResearchSpecial,
  {6bfced16-b16f-47f6-8223-f7e267d75d19}, !- Handle
  ,                                       !- Temperature Capacity Multiplier
  15,                                     !- Humidity Capacity Multiplier
  ;                                       !- Carbon Dioxide Capacity Multiplier

OS:ThermalZone,
  {21551b05-98c6-4dc3-898e-9309313355bb}, !- Handle
  living zone,                            !- Name
  ,                                       !- Multiplier
  ,                                       !- Ceiling Height {m}
  ,                                       !- Volume {m3}
  ,                                       !- Floor Area {m2}
  ,                                       !- Zone Inside Convection Algorithm
  ,                                       !- Zone Outside Convection Algorithm
  ,                                       !- Zone Conditioning Equipment List Name
  {4b39306b-bc71-48ef-8e73-b2411ae59cb1}, !- Zone Air Inlet Port List
  {ab250fe7-b00d-448c-963d-25e046d23e4d}, !- Zone Air Exhaust Port List
  {0d3ebbdf-6a1f-445d-b085-656b771cb254}, !- Zone Air Node Name
  ,                                       !- Zone Return Air Node Name
  ,                                       !- Primary Daylighting Control Name
  ,                                       !- Fraction of Zone Controlled by Primary Daylighting Control
  ,                                       !- Secondary Daylighting Control Name
  ,                                       !- Fraction of Zone Controlled by Secondary Daylighting Control
  ,                                       !- Illuminance Map Name
  ,                                       !- Group Rendering Name
  ,                                       !- Thermostat Name
  No;                                     !- Use Ideal Air Loads

OS:Node,
  {68c1b263-39b8-4d3e-96d3-29d01fc938ca}, !- Handle
  Node 1,                                 !- Name
  {0d3ebbdf-6a1f-445d-b085-656b771cb254}, !- Inlet Port
  ;                                       !- Outlet Port

OS:Connection,
  {0d3ebbdf-6a1f-445d-b085-656b771cb254}, !- Handle
  {fe818e1f-d07e-406a-bb71-ff02dbf15d0e}, !- Name
  {21551b05-98c6-4dc3-898e-9309313355bb}, !- Source Object
  11,                                     !- Outlet Port
  {68c1b263-39b8-4d3e-96d3-29d01fc938ca}, !- Target Object
  2;                                      !- Inlet Port

OS:PortList,
  {4b39306b-bc71-48ef-8e73-b2411ae59cb1}, !- Handle
  {b6384005-60a9-45a0-98aa-75d9727b77cc}, !- Name
  {21551b05-98c6-4dc3-898e-9309313355bb}; !- HVAC Component

OS:PortList,
  {ab250fe7-b00d-448c-963d-25e046d23e4d}, !- Handle
  {64f9e933-b7f2-4c1d-84e6-bda5a717c731}, !- Name
  {21551b05-98c6-4dc3-898e-9309313355bb}; !- HVAC Component

OS:Sizing:Zone,
  {1b250e9a-56c6-4537-a8de-fda5aad694c2}, !- Handle
  {21551b05-98c6-4dc3-898e-9309313355bb}, !- Zone or ZoneList Name
  SupplyAirTemperature,                   !- Zone Cooling Design Supply Air Temperature Input Method
  14,                                     !- Zone Cooling Design Supply Air Temperature {C}
  11.11,                                  !- Zone Cooling Design Supply Air Temperature Difference {deltaC}
  SupplyAirTemperature,                   !- Zone Heating Design Supply Air Temperature Input Method
  40,                                     !- Zone Heating Design Supply Air Temperature {C}
  11.11,                                  !- Zone Heating Design Supply Air Temperature Difference {deltaC}
  0.0085,                                 !- Zone Cooling Design Supply Air Humidity Ratio {kg-H2O/kg-air}
  0.008,                                  !- Zone Heating Design Supply Air Humidity Ratio {kg-H2O/kg-air}
  ,                                       !- Zone Heating Sizing Factor
  ,                                       !- Zone Cooling Sizing Factor
  DesignDay,                              !- Cooling Design Air Flow Method
  ,                                       !- Cooling Design Air Flow Rate {m3/s}
  ,                                       !- Cooling Minimum Air Flow per Zone Floor Area {m3/s-m2}
  ,                                       !- Cooling Minimum Air Flow {m3/s}
  ,                                       !- Cooling Minimum Air Flow Fraction
  DesignDay,                              !- Heating Design Air Flow Method
  ,                                       !- Heating Design Air Flow Rate {m3/s}
  ,                                       !- Heating Maximum Air Flow per Zone Floor Area {m3/s-m2}
  ,                                       !- Heating Maximum Air Flow {m3/s}
  ,                                       !- Heating Maximum Air Flow Fraction
  ,                                       !- Design Zone Air Distribution Effectiveness in Cooling Mode
  ,                                       !- Design Zone Air Distribution Effectiveness in Heating Mode
  No,                                     !- Account for Dedicated Outdoor Air System
  NeutralSupplyAir,                       !- Dedicated Outdoor Air System Control Strategy
  autosize,                               !- Dedicated Outdoor Air Low Setpoint Temperature for Design {C}
  autosize;                               !- Dedicated Outdoor Air High Setpoint Temperature for Design {C}

OS:ZoneHVAC:EquipmentList,
  {ae27ea6d-7ce4-4c29-ace3-95961b170829}, !- Handle
  Zone HVAC Equipment List 1,             !- Name
  {21551b05-98c6-4dc3-898e-9309313355bb}; !- Thermal Zone

OS:Space,
  {875e7faf-bdb6-4a02-8691-79d311bec91b}, !- Handle
  living space,                           !- Name
  ,                                       !- Space Type Name
  ,                                       !- Default Construction Set Name
  ,                                       !- Default Schedule Set Name
  ,                                       !- Direction of Relative North {deg}
  ,                                       !- X Origin {m}
  ,                                       !- Y Origin {m}
  ,                                       !- Z Origin {m}
  ,                                       !- Building Story Name
  {21551b05-98c6-4dc3-898e-9309313355bb}, !- Thermal Zone Name
  ,                                       !- Part of Total Floor Area
  ,                                       !- Design Specification Outdoor Air Object Name
  {1e7a7c2a-50c2-4baa-98ef-004e4b79c7bf}; !- Building Unit Name

OS:Surface,
  {ab2b73cc-6fc7-4272-94ae-7b5ce0e1f133}, !- Handle
  Surface 1,                              !- Name
  Floor,                                  !- Surface Type
  ,                                       !- Construction Name
  {875e7faf-bdb6-4a02-8691-79d311bec91b}, !- Space Name
  Surface,                                !- Outside Boundary Condition
  {eaefdcb9-18cf-4155-9b2e-9f4f2128d492}, !- Outside Boundary Condition Object
  NoSun,                                  !- Sun Exposure
  NoWind,                                 !- Wind Exposure
  ,                                       !- View Factor to Ground
  ,                                       !- Number of Vertices
  0, -9.144, 0,                           !- X,Y,Z Vertex 1 {m}
  0, 0, 0,                                !- X,Y,Z Vertex 2 {m}
  4.572, 0, 0,                            !- X,Y,Z Vertex 3 {m}
  4.572, -9.144, 0;                       !- X,Y,Z Vertex 4 {m}

OS:Surface,
  {7bb578d4-e3cf-4faa-b8d4-4239a76d64fb}, !- Handle
  Surface 2,                              !- Name
  Wall,                                   !- Surface Type
  ,                                       !- Construction Name
  {875e7faf-bdb6-4a02-8691-79d311bec91b}, !- Space Name
  Outdoors,                               !- Outside Boundary Condition
  ,                                       !- Outside Boundary Condition Object
  SunExposed,                             !- Sun Exposure
  WindExposed,                            !- Wind Exposure
  ,                                       !- View Factor to Ground
  ,                                       !- Number of Vertices
  0, 0, 2.4384,                           !- X,Y,Z Vertex 1 {m}
  0, 0, 0,                                !- X,Y,Z Vertex 2 {m}
  0, -9.144, 0,                           !- X,Y,Z Vertex 3 {m}
  0, -9.144, 2.4384;                      !- X,Y,Z Vertex 4 {m}

OS:Surface,
  {a015aca1-652a-4cfd-8d50-c19eb2730e8e}, !- Handle
  Surface 3,                              !- Name
  Wall,                                   !- Surface Type
  ,                                       !- Construction Name
  {875e7faf-bdb6-4a02-8691-79d311bec91b}, !- Space Name
  Outdoors,                               !- Outside Boundary Condition
  ,                                       !- Outside Boundary Condition Object
  SunExposed,                             !- Sun Exposure
  WindExposed,                            !- Wind Exposure
  ,                                       !- View Factor to Ground
  ,                                       !- Number of Vertices
  4.572, 0, 2.4384,                       !- X,Y,Z Vertex 1 {m}
  4.572, 0, 0,                            !- X,Y,Z Vertex 2 {m}
  0, 0, 0,                                !- X,Y,Z Vertex 3 {m}
  0, 0, 2.4384;                           !- X,Y,Z Vertex 4 {m}

OS:Surface,
  {2b5136a4-0db7-4ac5-b652-86f1d63c824e}, !- Handle
  Surface 4,                              !- Name
  Wall,                                   !- Surface Type
  ,                                       !- Construction Name
  {875e7faf-bdb6-4a02-8691-79d311bec91b}, !- Space Name
  Surface,                                !- Outside Boundary Condition
  {a6da7648-2157-40a8-a5f3-8f3d7a23c0a1}, !- Outside Boundary Condition Object
  NoSun,                                  !- Sun Exposure
  NoWind,                                 !- Wind Exposure
  ,                                       !- View Factor to Ground
  ,                                       !- Number of Vertices
  4.572, -9.144, 2.4384,                  !- X,Y,Z Vertex 1 {m}
  4.572, -9.144, 0,                       !- X,Y,Z Vertex 2 {m}
  4.572, 0, 0,                            !- X,Y,Z Vertex 3 {m}
  4.572, 0, 2.4384;                       !- X,Y,Z Vertex 4 {m}

OS:Surface,
  {25679bb0-4eb9-41fd-a802-a18d474b4555}, !- Handle
  Surface 5,                              !- Name
  Wall,                                   !- Surface Type
  ,                                       !- Construction Name
  {875e7faf-bdb6-4a02-8691-79d311bec91b}, !- Space Name
  Outdoors,                               !- Outside Boundary Condition
  ,                                       !- Outside Boundary Condition Object
  SunExposed,                             !- Sun Exposure
  WindExposed,                            !- Wind Exposure
  ,                                       !- View Factor to Ground
  ,                                       !- Number of Vertices
  0, -9.144, 2.4384,                      !- X,Y,Z Vertex 1 {m}
  0, -9.144, 0,                           !- X,Y,Z Vertex 2 {m}
  4.572, -9.144, 0,                       !- X,Y,Z Vertex 3 {m}
  4.572, -9.144, 2.4384;                  !- X,Y,Z Vertex 4 {m}

OS:Surface,
  {72c35331-ef3e-46dc-a107-7e5d4aa4740c}, !- Handle
  Surface 6,                              !- Name
  RoofCeiling,                            !- Surface Type
  ,                                       !- Construction Name
  {875e7faf-bdb6-4a02-8691-79d311bec91b}, !- Space Name
  Outdoors,                               !- Outside Boundary Condition
  ,                                       !- Outside Boundary Condition Object
  SunExposed,                             !- Sun Exposure
  WindExposed,                            !- Wind Exposure
  ,                                       !- View Factor to Ground
  ,                                       !- Number of Vertices
  4.572, -9.144, 2.4384,                  !- X,Y,Z Vertex 1 {m}
  4.572, 0, 2.4384,                       !- X,Y,Z Vertex 2 {m}
  0, 0, 2.4384,                           !- X,Y,Z Vertex 3 {m}
  0, -9.144, 2.4384;                      !- X,Y,Z Vertex 4 {m}

OS:ThermalZone,
  {154fff84-285c-4f29-9d06-16e3d56a9146}, !- Handle
  living zone|unit 2,                     !- Name
  ,                                       !- Multiplier
  ,                                       !- Ceiling Height {m}
  ,                                       !- Volume {m3}
  ,                                       !- Floor Area {m2}
  ,                                       !- Zone Inside Convection Algorithm
  ,                                       !- Zone Outside Convection Algorithm
  ,                                       !- Zone Conditioning Equipment List Name
  {79da3ecc-77c7-4d41-bd83-a674910985cd}, !- Zone Air Inlet Port List
  {8ddff42f-5f2a-4509-9ec0-b2dcdba61460}, !- Zone Air Exhaust Port List
  {2bfcb96c-0736-4d98-89b1-e16ff1c69a4c}, !- Zone Air Node Name
  ,                                       !- Zone Return Air Node Name
  ,                                       !- Primary Daylighting Control Name
  ,                                       !- Fraction of Zone Controlled by Primary Daylighting Control
  ,                                       !- Secondary Daylighting Control Name
  ,                                       !- Fraction of Zone Controlled by Secondary Daylighting Control
  ,                                       !- Illuminance Map Name
  ,                                       !- Group Rendering Name
  ,                                       !- Thermostat Name
  No;                                     !- Use Ideal Air Loads

OS:Node,
  {7b2147ed-d089-4afc-ac46-0f0b23ef93a3}, !- Handle
  Node 2,                                 !- Name
  {2bfcb96c-0736-4d98-89b1-e16ff1c69a4c}, !- Inlet Port
  ;                                       !- Outlet Port

OS:Connection,
  {2bfcb96c-0736-4d98-89b1-e16ff1c69a4c}, !- Handle
  {ff3a6762-68b1-4a06-aef9-6b8fcca137c5}, !- Name
  {154fff84-285c-4f29-9d06-16e3d56a9146}, !- Source Object
  11,                                     !- Outlet Port
  {7b2147ed-d089-4afc-ac46-0f0b23ef93a3}, !- Target Object
  2;                                      !- Inlet Port

OS:PortList,
  {79da3ecc-77c7-4d41-bd83-a674910985cd}, !- Handle
  {ad8119be-6ac6-4936-b874-70ebd520a955}, !- Name
  {154fff84-285c-4f29-9d06-16e3d56a9146}; !- HVAC Component

OS:PortList,
  {8ddff42f-5f2a-4509-9ec0-b2dcdba61460}, !- Handle
  {8b06add4-c57b-401e-b1cb-9ce1195f61ef}, !- Name
  {154fff84-285c-4f29-9d06-16e3d56a9146}; !- HVAC Component

OS:Sizing:Zone,
  {c02a3d5c-0d70-4850-8c45-e997bcc41096}, !- Handle
  {154fff84-285c-4f29-9d06-16e3d56a9146}, !- Zone or ZoneList Name
  SupplyAirTemperature,                   !- Zone Cooling Design Supply Air Temperature Input Method
  14,                                     !- Zone Cooling Design Supply Air Temperature {C}
  11.11,                                  !- Zone Cooling Design Supply Air Temperature Difference {deltaC}
  SupplyAirTemperature,                   !- Zone Heating Design Supply Air Temperature Input Method
  40,                                     !- Zone Heating Design Supply Air Temperature {C}
  11.11,                                  !- Zone Heating Design Supply Air Temperature Difference {deltaC}
  0.0085,                                 !- Zone Cooling Design Supply Air Humidity Ratio {kg-H2O/kg-air}
  0.008,                                  !- Zone Heating Design Supply Air Humidity Ratio {kg-H2O/kg-air}
  ,                                       !- Zone Heating Sizing Factor
  ,                                       !- Zone Cooling Sizing Factor
  DesignDay,                              !- Cooling Design Air Flow Method
  ,                                       !- Cooling Design Air Flow Rate {m3/s}
  ,                                       !- Cooling Minimum Air Flow per Zone Floor Area {m3/s-m2}
  ,                                       !- Cooling Minimum Air Flow {m3/s}
  ,                                       !- Cooling Minimum Air Flow Fraction
  DesignDay,                              !- Heating Design Air Flow Method
  ,                                       !- Heating Design Air Flow Rate {m3/s}
  ,                                       !- Heating Maximum Air Flow per Zone Floor Area {m3/s-m2}
  ,                                       !- Heating Maximum Air Flow {m3/s}
  ,                                       !- Heating Maximum Air Flow Fraction
  ,                                       !- Design Zone Air Distribution Effectiveness in Cooling Mode
  ,                                       !- Design Zone Air Distribution Effectiveness in Heating Mode
  No,                                     !- Account for Dedicated Outdoor Air System
  NeutralSupplyAir,                       !- Dedicated Outdoor Air System Control Strategy
  autosize,                               !- Dedicated Outdoor Air Low Setpoint Temperature for Design {C}
  autosize;                               !- Dedicated Outdoor Air High Setpoint Temperature for Design {C}

OS:ZoneHVAC:EquipmentList,
  {e422b417-3ba1-4e4f-b5d7-e81e494cb5a4}, !- Handle
  Zone HVAC Equipment List 2,             !- Name
  {154fff84-285c-4f29-9d06-16e3d56a9146}; !- Thermal Zone

OS:Space,
  {6f48feb5-904b-4a62-b1e2-c3a0ec97fede}, !- Handle
  living space|unit 2,                    !- Name
  ,                                       !- Space Type Name
  ,                                       !- Default Construction Set Name
  ,                                       !- Default Schedule Set Name
  -0,                                     !- Direction of Relative North {deg}
  0,                                      !- X Origin {m}
  0,                                      !- Y Origin {m}
  0,                                      !- Z Origin {m}
  ,                                       !- Building Story Name
  {154fff84-285c-4f29-9d06-16e3d56a9146}, !- Thermal Zone Name
  ,                                       !- Part of Total Floor Area
  ,                                       !- Design Specification Outdoor Air Object Name
  {a72ec088-425f-4f1a-9656-982e71244ebb}; !- Building Unit Name

OS:Surface,
  {75053023-ae48-4be6-aa88-9640a4b6a227}, !- Handle
  Surface 7,                              !- Name
  Wall,                                   !- Surface Type
  ,                                       !- Construction Name
  {6f48feb5-904b-4a62-b1e2-c3a0ec97fede}, !- Space Name
  Outdoors,                               !- Outside Boundary Condition
  ,                                       !- Outside Boundary Condition Object
  SunExposed,                             !- Sun Exposure
  WindExposed,                            !- Wind Exposure
  ,                                       !- View Factor to Ground
  ,                                       !- Number of Vertices
  4.572, -9.144, 2.4384,                  !- X,Y,Z Vertex 1 {m}
  4.572, -9.144, 0,                       !- X,Y,Z Vertex 2 {m}
  9.144, -9.144, 0,                       !- X,Y,Z Vertex 3 {m}
  9.144, -9.144, 2.4384;                  !- X,Y,Z Vertex 4 {m}

OS:Surface,
  {8ef05f88-34ae-48ed-9fcc-c510c773edd9}, !- Handle
  Surface 8,                              !- Name
  Floor,                                  !- Surface Type
  ,                                       !- Construction Name
  {6f48feb5-904b-4a62-b1e2-c3a0ec97fede}, !- Space Name
  Surface,                                !- Outside Boundary Condition
  {70d3ab05-e24c-4ac8-9041-e3e14ee7a102}, !- Outside Boundary Condition Object
  NoSun,                                  !- Sun Exposure
  NoWind,                                 !- Wind Exposure
  ,                                       !- View Factor to Ground
  ,                                       !- Number of Vertices
  4.572, -9.144, 0,                       !- X,Y,Z Vertex 1 {m}
  4.572, 0, 0,                            !- X,Y,Z Vertex 2 {m}
  9.144, 0, 0,                            !- X,Y,Z Vertex 3 {m}
  9.144, -9.144, 0;                       !- X,Y,Z Vertex 4 {m}

OS:Surface,
  {a6da7648-2157-40a8-a5f3-8f3d7a23c0a1}, !- Handle
  Surface 9,                              !- Name
  Wall,                                   !- Surface Type
  ,                                       !- Construction Name
  {6f48feb5-904b-4a62-b1e2-c3a0ec97fede}, !- Space Name
  Surface,                                !- Outside Boundary Condition
  {2b5136a4-0db7-4ac5-b652-86f1d63c824e}, !- Outside Boundary Condition Object
  NoSun,                                  !- Sun Exposure
  NoWind,                                 !- Wind Exposure
  ,                                       !- View Factor to Ground
  ,                                       !- Number of Vertices
  4.572, 0, 2.4384,                       !- X,Y,Z Vertex 1 {m}
  4.572, 0, 0,                            !- X,Y,Z Vertex 2 {m}
  4.572, -9.144, 0,                       !- X,Y,Z Vertex 3 {m}
  4.572, -9.144, 2.4384;                  !- X,Y,Z Vertex 4 {m}

OS:Surface,
  {aebebb9d-af16-4fad-a590-92b2e6a2bfdc}, !- Handle
  Surface 10,                             !- Name
  Wall,                                   !- Surface Type
  ,                                       !- Construction Name
  {6f48feb5-904b-4a62-b1e2-c3a0ec97fede}, !- Space Name
  Outdoors,                               !- Outside Boundary Condition
  ,                                       !- Outside Boundary Condition Object
  SunExposed,                             !- Sun Exposure
  WindExposed,                            !- Wind Exposure
  ,                                       !- View Factor to Ground
  ,                                       !- Number of Vertices
  9.144, 0, 2.4384,                       !- X,Y,Z Vertex 1 {m}
  9.144, 0, 0,                            !- X,Y,Z Vertex 2 {m}
  4.572, 0, 0,                            !- X,Y,Z Vertex 3 {m}
  4.572, 0, 2.4384;                       !- X,Y,Z Vertex 4 {m}

OS:Surface,
  {278ed311-e945-4299-84ce-796714144149}, !- Handle
  Surface 11,                             !- Name
  Wall,                                   !- Surface Type
  ,                                       !- Construction Name
  {6f48feb5-904b-4a62-b1e2-c3a0ec97fede}, !- Space Name
  Surface,                                !- Outside Boundary Condition
  {5917ce66-d122-4ea3-8acc-3b0b28f06876}, !- Outside Boundary Condition Object
  NoSun,                                  !- Sun Exposure
  NoWind,                                 !- Wind Exposure
  ,                                       !- View Factor to Ground
  ,                                       !- Number of Vertices
  9.144, -9.144, 2.4384,                  !- X,Y,Z Vertex 1 {m}
  9.144, -9.144, 0,                       !- X,Y,Z Vertex 2 {m}
  9.144, 0, 0,                            !- X,Y,Z Vertex 3 {m}
  9.144, 0, 2.4384;                       !- X,Y,Z Vertex 4 {m}

OS:Surface,
  {88823510-8279-4e37-b188-02a283f62e2f}, !- Handle
  Surface 12,                             !- Name
  RoofCeiling,                            !- Surface Type
  ,                                       !- Construction Name
  {6f48feb5-904b-4a62-b1e2-c3a0ec97fede}, !- Space Name
  Outdoors,                               !- Outside Boundary Condition
  ,                                       !- Outside Boundary Condition Object
  SunExposed,                             !- Sun Exposure
  WindExposed,                            !- Wind Exposure
  ,                                       !- View Factor to Ground
  ,                                       !- Number of Vertices
  9.144, -9.144, 2.4384,                  !- X,Y,Z Vertex 1 {m}
  9.144, 0, 2.4384,                       !- X,Y,Z Vertex 2 {m}
  4.572, 0, 2.4384,                       !- X,Y,Z Vertex 3 {m}
  4.572, -9.144, 2.4384;                  !- X,Y,Z Vertex 4 {m}

OS:ThermalZone,
  {e809c1ad-393b-4491-b2b8-5adc1e1c4819}, !- Handle
  living zone|unit 3,                     !- Name
  ,                                       !- Multiplier
  ,                                       !- Ceiling Height {m}
  ,                                       !- Volume {m3}
  ,                                       !- Floor Area {m2}
  ,                                       !- Zone Inside Convection Algorithm
  ,                                       !- Zone Outside Convection Algorithm
  ,                                       !- Zone Conditioning Equipment List Name
  {91c4a55f-b94d-4c2a-af01-936f1ef4d4f2}, !- Zone Air Inlet Port List
  {ed7d2aab-6cea-4eef-bcb9-b04c288202dd}, !- Zone Air Exhaust Port List
  {ef710dde-a7bc-462a-bcf9-ae348a11f8f7}, !- Zone Air Node Name
  ,                                       !- Zone Return Air Node Name
  ,                                       !- Primary Daylighting Control Name
  ,                                       !- Fraction of Zone Controlled by Primary Daylighting Control
  ,                                       !- Secondary Daylighting Control Name
  ,                                       !- Fraction of Zone Controlled by Secondary Daylighting Control
  ,                                       !- Illuminance Map Name
  ,                                       !- Group Rendering Name
  ,                                       !- Thermostat Name
  No;                                     !- Use Ideal Air Loads

OS:Node,
  {7529cc30-5845-47c8-b961-97f203a51e31}, !- Handle
  Node 3,                                 !- Name
  {ef710dde-a7bc-462a-bcf9-ae348a11f8f7}, !- Inlet Port
  ;                                       !- Outlet Port

OS:Connection,
  {ef710dde-a7bc-462a-bcf9-ae348a11f8f7}, !- Handle
  {1f287c08-330b-4ee8-be3b-2ed01d02d9d6}, !- Name
  {e809c1ad-393b-4491-b2b8-5adc1e1c4819}, !- Source Object
  11,                                     !- Outlet Port
  {7529cc30-5845-47c8-b961-97f203a51e31}, !- Target Object
  2;                                      !- Inlet Port

OS:PortList,
  {91c4a55f-b94d-4c2a-af01-936f1ef4d4f2}, !- Handle
  {8afd5fb1-f4ef-49ac-b3c3-9d44d8ebde13}, !- Name
  {e809c1ad-393b-4491-b2b8-5adc1e1c4819}; !- HVAC Component

OS:PortList,
  {ed7d2aab-6cea-4eef-bcb9-b04c288202dd}, !- Handle
  {3655887b-a324-44c1-90bc-bfba4285f909}, !- Name
  {e809c1ad-393b-4491-b2b8-5adc1e1c4819}; !- HVAC Component

OS:Sizing:Zone,
  {04d2b9b4-302c-4d96-8b3d-cd4a138d6ff2}, !- Handle
  {e809c1ad-393b-4491-b2b8-5adc1e1c4819}, !- Zone or ZoneList Name
  SupplyAirTemperature,                   !- Zone Cooling Design Supply Air Temperature Input Method