!- NOTE: Auto-generated from /test/osw_files/SFD_2000sqft_2story_SL_UA_Denver_HipRoof_AspectRatioHalf.osw

OS:Version,
  {51bb613f-f12e-4c92-98a8-79338631dd53}, !- Handle
  2.2.0;                                  !- Version Identifier

OS:Building,
  {bf305633-c5a1-4881-9edf-ca5e1a8e1274}, !- Handle
  Building,                               !- Name
  ,                                       !- Building Sector Type
  ,                                       !- North Axis {deg}
  ,                                       !- Nominal Floor to Floor Height {m}
  ,                                       !- Space Type Name
  ,                                       !- Default Construction Set Name
  ,                                       !- Default Schedule Set Name
  2,                                      !- Standards Number of Stories
  2,                                      !- Standards Number of Above Ground Stories
  singlefamilydetached,                   !- Standards Building Type
  1;                                      !- Standards Number of Living Units

OS:YearDescription,
  {513d8dda-86cb-442a-b01c-1f7f0e0ac70e}; !- Handle

OS:SimulationControl,
  {2c487a4c-bac9-4ac5-b669-1e49d9da7c2b}, !- Handle
  ,                                       !- Do Zone Sizing Calculation
  ,                                       !- Do System Sizing Calculation
  ,                                       !- Do Plant Sizing Calculation
  No,                                     !- Run Simulation for Sizing Periods
  ;                                       !- Run Simulation for Weather File Run Periods

OS:Timestep,
  {4ebc9f1e-4707-402e-9844-67eb1ffbd522}, !- Handle
  6;                                      !- Number of Timesteps per Hour

OS:RunPeriod,
  {28df894d-6af9-4fb8-8f56-df1753344aa3}, !- Handle
  Run Period,                             !- Name
  1,                                      !- Begin Month
  1,                                      !- Begin Day of Month
  12,                                     !- End Month
  31,                                     !- End Day of Month
  ,                                       !- Use Weather File Holidays and Special Days
  ,                                       !- Use Weather File Daylight Saving Period
  ,                                       !- Apply Weekend Holiday Rule
  ,                                       !- Use Weather File Rain Indicators
  ,                                       !- Use Weather File Snow Indicators
  ;                                       !- Number of Times Runperiod to be Repeated

OS:Sizing:Parameters,
  {dde5af6f-7923-4600-a28a-7556673a0266}, !- Handle
  1.0,                                    !- Heating Sizing Factor
  1.0;                                    !- Cooling Sizing Factor

OS:ShadowCalculation,
  {ca758bea-4416-4626-9bba-3d8795c79bd6}, !- Handle
  20,                                     !- Calculation Frequency
  200;                                    !- Maximum Figures in Shadow Overlap Calculations

OS:SurfaceConvectionAlgorithm:Inside,
  {aaabfc36-718a-4ab0-b622-f186ebb45230}, !- Handle
  TARP;                                   !- Algorithm

OS:SurfaceConvectionAlgorithm:Outside,
  {9a0a9f6f-4bbd-4b12-a121-9492a1fcd7d6}, !- Handle
  DOE-2;                                  !- Algorithm

OS:HeatBalanceAlgorithm,
  {9d93e563-e1e0-46d7-9e39-d1c8aceb7212}, !- Handle
  ConductionTransferFunction,             !- Algorithm
  200;                                    !- Surface Temperature Upper Limit {C}

OS:ZoneCapacitanceMultiplier:ResearchSpecial,
  {6bfced16-b16f-47f6-8223-f7e267d75d19}, !- Handle
  ,                                       !- Temperature Capacity Multiplier
  15,                                     !- Humidity Capacity Multiplier
  ;                                       !- Carbon Dioxide Capacity Multiplier

OS:ThermalZone,
  {c431abd7-3e38-4ff3-a485-e26f87047860}, !- Handle
  living zone,                            !- Name
  ,                                       !- Multiplier
  ,                                       !- Ceiling Height {m}
  ,                                       !- Volume {m3}
  ,                                       !- Floor Area {m2}
  ,                                       !- Zone Inside Convection Algorithm
  ,                                       !- Zone Outside Convection Algorithm
  ,                                       !- Zone Conditioning Equipment List Name
  {bca4e096-6f39-4d54-997e-0352354bf1b4}, !- Zone Air Inlet Port List
  {e76d8f4b-09e9-4e69-b757-02751ce55496}, !- Zone Air Exhaust Port List
  {af8a27b7-07e7-4ca8-8e13-e32d8243b11e}, !- Zone Air Node Name
  ,                                       !- Zone Return Air Node Name
  ,                                       !- Primary Daylighting Control Name
  ,                                       !- Fraction of Zone Controlled by Primary Daylighting Control
  ,                                       !- Secondary Daylighting Control Name
  ,                                       !- Fraction of Zone Controlled by Secondary Daylighting Control
  ,                                       !- Illuminance Map Name
  ,                                       !- Group Rendering Name
  ,                                       !- Thermostat Name
  No;                                     !- Use Ideal Air Loads

OS:Node,
  {fb0b8386-6de1-4f6b-ac01-8e643aad7d18}, !- Handle
  Node 1,                                 !- Name
  {af8a27b7-07e7-4ca8-8e13-e32d8243b11e}, !- Inlet Port
  ;                                       !- Outlet Port

OS:Connection,
  {af8a27b7-07e7-4ca8-8e13-e32d8243b11e}, !- Handle
  {9e358790-7c28-4bd3-a9fb-d11f6904862c}, !- Name
  {c431abd7-3e38-4ff3-a485-e26f87047860}, !- Source Object
  11,                                     !- Outlet Port
  {fb0b8386-6de1-4f6b-ac01-8e643aad7d18}, !- Target Object
  2;                                      !- Inlet Port

OS:PortList,
  {bca4e096-6f39-4d54-997e-0352354bf1b4}, !- Handle
  {3e364505-ad75-4c4a-8603-8b454967df3e}, !- Name
  {c431abd7-3e38-4ff3-a485-e26f87047860}; !- HVAC Component

OS:PortList,
  {e76d8f4b-09e9-4e69-b757-02751ce55496}, !- Handle
  {7dcce866-2177-4ae8-8d46-aecdeee0ce6d}, !- Name
  {c431abd7-3e38-4ff3-a485-e26f87047860}; !- HVAC Component

OS:Sizing:Zone,
  {8dfb6ab6-5c1b-4e68-a8ae-37ea6694d016}, !- Handle
  {c431abd7-3e38-4ff3-a485-e26f87047860}, !- Zone or ZoneList Name
  SupplyAirTemperature,                   !- Zone Cooling Design Supply Air Temperature Input Method
  14,                                     !- Zone Cooling Design Supply Air Temperature {C}
  11.11,                                  !- Zone Cooling Design Supply Air Temperature Difference {deltaC}
  SupplyAirTemperature,                   !- Zone Heating Design Supply Air Temperature Input Method
  40,                                     !- Zone Heating Design Supply Air Temperature {C}
  11.11,                                  !- Zone Heating Design Supply Air Temperature Difference {deltaC}
  0.0085,                                 !- Zone Cooling Design Supply Air Humidity Ratio {kg-H2O/kg-air}
  0.008,                                  !- Zone Heating Design Supply Air Humidity Ratio {kg-H2O/kg-air}
  ,                                       !- Zone Heating Sizing Factor
  ,                                       !- Zone Cooling Sizing Factor
  DesignDay,                              !- Cooling Design Air Flow Method
  ,                                       !- Cooling Design Air Flow Rate {m3/s}
  ,                                       !- Cooling Minimum Air Flow per Zone Floor Area {m3/s-m2}
  ,                                       !- Cooling Minimum Air Flow {m3/s}
  ,                                       !- Cooling Minimum Air Flow Fraction
  DesignDay,                              !- Heating Design Air Flow Method
  ,                                       !- Heating Design Air Flow Rate {m3/s}
  ,                                       !- Heating Maximum Air Flow per Zone Floor Area {m3/s-m2}
  ,                                       !- Heating Maximum Air Flow {m3/s}
  ,                                       !- Heating Maximum Air Flow Fraction
  ,                                       !- Design Zone Air Distribution Effectiveness in Cooling Mode
  ,                                       !- Design Zone Air Distribution Effectiveness in Heating Mode
  No,                                     !- Account for Dedicated Outdoor Air System
  NeutralSupplyAir,                       !- Dedicated Outdoor Air System Control Strategy
  autosize,                               !- Dedicated Outdoor Air Low Setpoint Temperature for Design {C}
  autosize;                               !- Dedicated Outdoor Air High Setpoint Temperature for Design {C}

OS:ZoneHVAC:EquipmentList,
  {c71371cd-e4af-4aff-b017-5173d1909b9a}, !- Handle
  Zone HVAC Equipment List 1,             !- Name
  {c431abd7-3e38-4ff3-a485-e26f87047860}; !- Thermal Zone

OS:Space,
  {9889b1b8-e3f6-43c8-9d31-769ecbf7e5ac}, !- Handle
  living space,                           !- Name
  ,                                       !- Space Type Name
  ,                                       !- Default Construction Set Name
  ,                                       !- Default Schedule Set Name
  -0,                                     !- Direction of Relative North {deg}
  0,                                      !- X Origin {m}
  0,                                      !- Y Origin {m}
  0,                                      !- Z Origin {m}
  ,                                       !- Building Story Name
  {c431abd7-3e38-4ff3-a485-e26f87047860}, !- Thermal Zone Name
  ,                                       !- Part of Total Floor Area
  ,                                       !- Design Specification Outdoor Air Object Name
  {e1b29985-5179-4cc3-8c91-c95171eaf75d}; !- Building Unit Name

OS:Surface,
  {7550f3cc-5dd7-439e-ad8b-f463fac777da}, !- Handle
  Surface 1,                              !- Name
  Floor,                                  !- Surface Type
  ,                                       !- Construction Name
  {9889b1b8-e3f6-43c8-9d31-769ecbf7e5ac}, !- Space Name
  Ground,                                 !- Outside Boundary Condition
  ,                                       !- Outside Boundary Condition Object
  NoSun,                                  !- Sun Exposure
  NoWind,                                 !- Wind Exposure
  ,                                       !- View Factor to Ground
  ,                                       !- Number of Vertices
  0, 0, 0,                                !- X,Y,Z Vertex 1 {m}
  0, 13.6310703908387, 0,                 !- X,Y,Z Vertex 2 {m}
  6.81553519541936, 13.6310703908387, 0,  !- X,Y,Z Vertex 3 {m}
  6.81553519541936, 0, 0;                 !- X,Y,Z Vertex 4 {m}

OS:Surface,
  {c7f70c49-31c4-4684-9d25-57dd379b6fdc}, !- Handle
  Surface 2,                              !- Name
  Wall,                                   !- Surface Type
  ,                                       !- Construction Name
  {9889b1b8-e3f6-43c8-9d31-769ecbf7e5ac}, !- Space Name
  Outdoors,                               !- Outside Boundary Condition
  ,                                       !- Outside Boundary Condition Object
  SunExposed,                             !- Sun Exposure
  WindExposed,                            !- Wind Exposure
  ,                                       !- View Factor to Ground
  ,                                       !- Number of Vertices
  0, 13.6310703908387, 2.4384,            !- X,Y,Z Vertex 1 {m}
  0, 13.6310703908387, 0,                 !- X,Y,Z Vertex 2 {m}
  0, 0, 0,                                !- X,Y,Z Vertex 3 {m}
  0, 0, 2.4384;                           !- X,Y,Z Vertex 4 {m}

OS:Surface,
  {e4545017-c846-42ee-8093-ac1526a54022}, !- Handle
  Surface 3,                              !- Name
  Wall,                                   !- Surface Type
  ,                                       !- Construction Name
  {9889b1b8-e3f6-43c8-9d31-769ecbf7e5ac}, !- Space Name
  Outdoors,                               !- Outside Boundary Condition
  ,                                       !- Outside Boundary Condition Object
  SunExposed,                             !- Sun Exposure
  WindExposed,                            !- Wind Exposure
  ,                                       !- View Factor to Ground
  ,                                       !- Number of Vertices
  6.81553519541936, 13.6310703908387, 2.4384, !- X,Y,Z Vertex 1 {m}
  6.81553519541936, 13.6310703908387, 0,  !- X,Y,Z Vertex 2 {m}
  0, 13.6310703908387, 0,                 !- X,Y,Z Vertex 3 {m}
  0, 13.6310703908387, 2.4384;            !- X,Y,Z Vertex 4 {m}

OS:Surface,
  {9dc8a004-8437-4417-927a-a9a2093f266f}, !- Handle
  Surface 4,                              !- Name
  Wall,                                   !- Surface Type
  ,                                       !- Construction Name
  {9889b1b8-e3f6-43c8-9d31-769ecbf7e5ac}, !- Space Name
  Outdoors,                               !- Outside Boundary Condition
  ,                                       !- Outside Boundary Condition Object
  SunExposed,                             !- Sun Exposure
  WindExposed,                            !- Wind Exposure
  ,                                       !- View Factor to Ground
  ,                                       !- Number of Vertices
  6.81553519541936, 0, 2.4384,            !- X,Y,Z Vertex 1 {m}
  6.81553519541936, 0, 0,                 !- X,Y,Z Vertex 2 {m}
  6.81553519541936, 13.6310703908387, 0,  !- X,Y,Z Vertex 3 {m}
  6.81553519541936, 13.6310703908387, 2.4384; !- X,Y,Z Vertex 4 {m}

OS:Surface,
  {66d6f1e7-f85e-4fa6-8cd5-ffea15209c1c}, !- Handle
  Surface 5,                              !- Name
  Wall,                                   !- Surface Type
  ,                                       !- Construction Name
  {9889b1b8-e3f6-43c8-9d31-769ecbf7e5ac}, !- Space Name
  Outdoors,                               !- Outside Boundary Condition
  ,                                       !- Outside Boundary Condition Object
  SunExposed,                             !- Sun Exposure
  WindExposed,                            !- Wind Exposure
  ,                                       !- View Factor to Ground
  ,                                       !- Number of Vertices
  0, 0, 2.4384,                           !- X,Y,Z Vertex 1 {m}
  0, 0, 0,                                !- X,Y,Z Vertex 2 {m}
  6.81553519541936, 0, 0,                 !- X,Y,Z Vertex 3 {m}
  6.81553519541936, 0, 2.4384;            !- X,Y,Z Vertex 4 {m}

OS:Surface,
  {ac796d88-97b7-4dbd-886d-a4bf53bd547b}, !- Handle
  Surface 6,                              !- Name
  RoofCeiling,                            !- Surface Type
  ,                                       !- Construction Name
  {9889b1b8-e3f6-43c8-9d31-769ecbf7e5ac}, !- Space Name
  Surface,                                !- Outside Boundary Condition
  {d05e7823-8e76-43d2-8da7-6066bda61cda}, !- Outside Boundary Condition Object
  NoSun,                                  !- Sun Exposure
  NoWind,                                 !- Wind Exposure
  ,                                       !- View Factor to Ground
  ,                                       !- Number of Vertices
  6.81553519541936, 0, 2.4384,            !- X,Y,Z Vertex 1 {m}
  6.81553519541936, 13.6310703908387, 2.4384, !- X,Y,Z Vertex 2 {m}
  0, 13.6310703908387, 2.4384,            !- X,Y,Z Vertex 3 {m}
  0, 0, 2.4384;                           !- X,Y,Z Vertex 4 {m}

OS:Space,
  {b4e0089e-6ecc-4b0a-a6e3-c0aca0110457}, !- Handle
  living space|story 2,                   !- Name
  ,                                       !- Space Type Name
  ,                                       !- Default Construction Set Name
  ,                                       !- Default Schedule Set Name
  -0,                                     !- Direction of Relative North {deg}
  0,                                      !- X Origin {m}
  0,                                      !- Y Origin {m}
  2.4384,                                 !- Z Origin {m}
  ,                                       !- Building Story Name
  {c431abd7-3e38-4ff3-a485-e26f87047860}, !- Thermal Zone Name
  ,                                       !- Part of Total Floor Area
  ,                                       !- Design Specification Outdoor Air Object Name
  {e1b29985-5179-4cc3-8c91-c95171eaf75d}; !- Building Unit Name

OS:Surface,
  {d05e7823-8e76-43d2-8da7-6066bda61cda}, !- Handle
  Surface 7,                              !- Name
  Floor,                                  !- Surface Type
  ,                                       !- Construction Name
  {b4e0089e-6ecc-4b0a-a6e3-c0aca0110457}, !- Space Name
  Surface,                                !- Outside Boundary Condition
  {ac796d88-97b7-4dbd-886d-a4bf53bd547b}, !- Outside Boundary Condition Object
  NoSun,                                  !- Sun Exposure
  NoWind,                                 !- Wind Exposure
  ,                                       !- View Factor to Ground
  ,                                       !- Number of Vertices
  0, 0, 0,                                !- X,Y,Z Vertex 1 {m}
  0, 13.6310703908387, 0,                 !- X,Y,Z Vertex 2 {m}
  6.81553519541936, 13.6310703908387, 0,  !- X,Y,Z Vertex 3 {m}
  6.81553519541936, 0, 0;                 !- X,Y,Z Vertex 4 {m}

OS:Surface,
  {f8bddab3-a9e7-4364-85a6-586716f4a17b}, !- Handle
  Surface 8,                              !- Name
  Wall,                                   !- Surface Type
  ,                                       !- Construction Name
  {b4e0089e-6ecc-4b0a-a6e3-c0aca0110457}, !- Space Name
  Outdoors,                               !- Outside Boundary Condition
  ,                                       !- Outside Boundary Condition Object
  SunExposed,                             !- Sun Exposure
  WindExposed,                            !- Wind Exposure
  ,                                       !- View Factor to Ground
  ,                                       !- Number of Vertices
  0, 13.6310703908387, 2.4384,            !- X,Y,Z Vertex 1 {m}
  0, 13.6310703908387, 0,                 !- X,Y,Z Vertex 2 {m}
  0, 0, 0,                                !- X,Y,Z Vertex 3 {m}
  0, 0, 2.4384;                           !- X,Y,Z Vertex 4 {m}

OS:Surface,
  {b250e37e-e203-4aee-98da-9c0baa3a20b0}, !- Handle
  Surface 9,                              !- Name
  Wall,                                   !- Surface Type
  ,                                       !- Construction Name
  {b4e0089e-6ecc-4b0a-a6e3-c0aca0110457}, !- Space Name
  Outdoors,                               !- Outside Boundary Condition
  ,                                       !- Outside Boundary Condition Object
  SunExposed,                             !- Sun Exposure
  WindExposed,                            !- Wind Exposure
  ,                                       !- View Factor to Ground
  ,                                       !- Number of Vertices
  6.81553519541936, 13.6310703908387, 2.4384, !- X,Y,Z Vertex 1 {m}
  6.81553519541936, 13.6310703908387, 0,  !- X,Y,Z Vertex 2 {m}
  0, 13.6310703908387, 0,                 !- X,Y,Z Vertex 3 {m}
  0, 13.6310703908387, 2.4384;            !- X,Y,Z Vertex 4 {m}

OS:Surface,
  {05d978ee-827a-4e17-8d60-5bf5c68e0ae4}, !- Handle
  Surface 10,                             !- Name
  Wall,                                   !- Surface Type
  ,                                       !- Construction Name
  {b4e0089e-6ecc-4b0a-a6e3-c0aca0110457}, !- Space Name
  Outdoors,                               !- Outside Boundary Condition
  ,                                       !- Outside Boundary Condition Object
  SunExposed,                             !- Sun Exposure
  WindExposed,                            !- Wind Exposure
  ,                                       !- View Factor to Ground
  ,                                       !- Number of Vertices
  6.81553519541936, 0, 2.4384,            !- X,Y,Z Vertex 1 {m}
  6.81553519541936, 0, 0,                 !- X,Y,Z Vertex 2 {m}
  6.81553519541936, 13.6310703908387, 0,  !- X,Y,Z Vertex 3 {m}
  6.81553519541936, 13.6310703908387, 2.4384; !- X,Y,Z Vertex 4 {m}

OS:Surface,
  {2353cb5c-eb97-465e-aa5d-c920731b42f5}, !- Handle
  Surface 11,                             !- Name
  Wall,                                   !- Surface Type
  ,                                       !- Construction Name
  {b4e0089e-6ecc-4b0a-a6e3-c0aca0110457}, !- Space Name
  Outdoors,                               !- Outside Boundary Condition
  ,                                       !- Outside Boundary Condition Object
  SunExposed,                             !- Sun Exposure
  WindExposed,                            !- Wind Exposure
  ,                                       !- View Factor to Ground
  ,                                       !- Number of Vertices
  0, 0, 2.4384,                           !- X,Y,Z Vertex 1 {m}
  0, 0, 0,                                !- X,Y,Z Vertex 2 {m}
  6.81553519541936, 0, 0,                 !- X,Y,Z Vertex 3 {m}
  6.81553519541936, 0, 2.4384;            !- X,Y,Z Vertex 4 {m}

OS:Surface,
  {763e90b8-2aed-44e5-81ae-03b883a1ffb2}, !- Handle
  Surface 12,                             !- Name
  RoofCeiling,                            !- Surface Type
  ,                                       !- Construction Name
  {b4e0089e-6ecc-4b0a-a6e3-c0aca0110457}, !- Space Name
  Surface,                                !- Outside Boundary Condition
  {1d8821e1-be5a-424a-98b5-b1dcb87fc819}, !- Outside Boundary Condition Object
  NoSun,                                  !- Sun Exposure
  NoWind,                                 !- Wind Exposure
  ,                                       !- View Factor to Ground
  ,                                       !- Number of Vertices
  6.81553519541936, 0, 2.4384,            !- X,Y,Z Vertex 1 {m}
  6.81553519541936, 13.6310703908387, 2.4384, !- X,Y,Z Vertex 2 {m}
  0, 13.6310703908387, 2.4384,            !- X,Y,Z Vertex 3 {m}
  0, 0, 2.4384;                           !- X,Y,Z Vertex 4 {m}

OS:Surface,
  {1d8821e1-be5a-424a-98b5-b1dcb87fc819}, !- Handle
  Surface 13,                             !- Name
  Floor,                                  !- Surface Type
  ,                                       !- Construction Name
  {ffdde2ba-e0ff-428a-9044-e8f0881f7932}, !- Space Name
  Surface,                                !- Outside Boundary Condition
  {763e90b8-2aed-44e5-81ae-03b883a1ffb2}, !- Outside Boundary Condition Object
  NoSun,                                  !- Sun Exposure
  NoWind,                                 !- Wind Exposure
  ,                                       !- View Factor to Ground
  ,                                       !- Number of Vertices
  0, 13.6310703908387, 0,                 !- X,Y,Z Vertex 1 {m}
  6.81553519541936, 13.6310703908387, 0,  !- X,Y,Z Vertex 2 {m}
  6.81553519541936, 0, 0,                 !- X,Y,Z Vertex 3 {m}
  0, 0, 0;                                !- X,Y,Z Vertex 4 {m}

OS:Surface,
  {a37eb1a1-0c87-4432-a72d-565d6b6b513c}, !- Handle
  Surface 14,                             !- Name
  RoofCeiling,                            !- Surface Type
  ,                                       !- Construction Name
  {ffdde2ba-e0ff-428a-9044-e8f0881f7932}, !- Space Name
  Outdoors,                               !- Outside Boundary Condition
  ,                                       !- Outside Boundary Condition Object
  SunExposed,                             !- Sun Exposure
  WindExposed,                            !- Wind Exposure
  ,                                       !- View Factor to Ground
  ,                                       !- Number of Vertices
  3.40776759770968, 10.223302793129, 1.70388379885484, !- X,Y,Z Vertex 1 {m}
  3.40776759770968, 3.40776759770968, 1.70388379885484, !- X,Y,Z Vertex 2 {m}
  6.81553519541936, 0, 0,                 !- X,Y,Z Vertex 3 {m}
  6.81553519541936, 13.6310703908387, 0;  !- X,Y,Z Vertex 4 {m}

OS:Surface,
  {480aea9f-9b5d-466c-a7be-5f4e83c61d13}, !- Handle
  Surface 15,                             !- Name
  RoofCeiling,                            !- Surface Type
  ,                                       !- Construction Name
  {ffdde2ba-e0ff-428a-9044-e8f0881f7932}, !- Space Name
  Outdoors,                               !- Outside Boundary Condition
  ,                                       !- Outside Boundary Condition Object
  SunExposed,                             !- Sun Exposure
  WindExposed,                            !- Wind Exposure
  ,                                       !- View Factor to Ground
  ,                                       !- Number of Vertices
  3.40776759770968, 3.40776759770968, 1.70388379885484, !- X,Y,Z Vertex 1 {m}
  3.40776759770968, 10.223302793129, 1.70388379885484, !- X,Y,Z Vertex 2 {m}
  0, 13.6310703908387, 0,                 !- X,Y,Z Vertex 3 {m}
  0, 0, 0;                                !- X,Y,Z Vertex 4 {m}

OS:Surface,
  {37ebfdae-59b4-4017-9c58-78791a67eea5}, !- Handle
  Surface 16,                             !- Name
  RoofCeiling,                            !- Surface Type
  ,                                       !- Construction Name
  {ffdde2ba-e0ff-428a-9044-e8f0881f7932}, !- Space Name
  Outdoors,                               !- Outside Boundary Condition
  ,                                       !- Outside Boundary Condition Object
  SunExposed,                             !- Sun Exposure
  WindExposed,                            !- Wind Exposure
  ,                                       !- View Factor to Ground
  ,                                       !- Number of Vertices
  3.40776759770968, 3.40776759770968, 1.70388379885484, !- X,Y,Z Vertex 1 {m}
  0, 0, 0,                                !- X,Y,Z Vertex 2 {m}
  6.81553519541936, 0, 0;                 !- X,Y,Z Vertex 3 {m}

OS:Surface,
  {6aec2874-6fda-4e5d-a1b7-81d37e3afcd2}, !- Handle
  Surface 17,                             !- Name
  RoofCeiling,                            !- Surface Type
  ,                                       !- Construction Name
  {ffdde2ba-e0ff-428a-9044-e8f0881f7932}, !- Space Name
  Outdoors,                               !- Outside Boundary Condition
  ,                                       !- Outside Boundary Condition Object
  SunExposed,                             !- Sun Exposure
  WindExposed,                            !- Wind Exposure
  ,                                       !- View Factor to Ground
  ,                                       !- Number of Vertices
  3.40776759770968, 10.223302793129, 1.70388379885484, !- X,Y,Z Vertex 1 {m}
  6.81553519541936, 13.6310703908387, 0,  !- X,Y,Z Vertex 2 {m}
  0, 13.6310703908387, 0;                 !- X,Y,Z Vertex 3 {m}

OS:Space,
  {ffdde2ba-e0ff-428a-9044-e8f0881f7932}, !- Handle
  unfinished attic space,                 !- Name
  ,                                       !- Space Type Name
  ,                                       !- Default Construction Set Name
  ,                                       !- Default Schedule Set Name
  -0,                                     !- Direction of Relative North {deg}
  0,                                      !- X Origin {m}
  0,                                      !- Y Origin {m}
  4.8768,                                 !- Z Origin {m}
  ,                                       !- Building Story Name
  {a6970267-58b1-4962-bb58-dd39fe0051a0}, !- Thermal Zone Name
  ,                                       !- Part of Total Floor Area
  ,                                       !- Design Specification Outdoor Air Object Name
  {e1b29985-5179-4cc3-8c91-c95171eaf75d}; !- Building Unit Name

OS:ThermalZone,
  {a6970267-58b1-4962-bb58-dd39fe0051a0}, !- Handle
  unfinished attic zone,                  !- Name
  ,                                       !- Multiplier
  ,                                       !- Ceiling Height {m}
  ,                                       !- Volume {m3}
  ,                                       !- Floor Area {m2}
  ,                                       !- Zone Inside Convection Algorithm
  ,                                       !- Zone Outside Convection Algorithm
  ,                                       !- Zone Conditioning Equipment List Name
  {9c7865ff-3c27-45ed-83e8-9e809c2e7e03}, !- Zone Air Inlet Port List
  {0ec57f8a-2f68-476e-b987-62c7a53cb73e}, !- Zone Air Exhaust Port List
  {8abe1e8b-58fd-4ab7-92f0-bd1bc256be03}, !- Zone Air Node Name
  ,                                       !- Zone Return Air Node Name
  ,                                       !- Primary Daylighting Control Name
  ,                                       !- Fraction of Zone Controlled by Primary Daylighting Control
  ,                                       !- Secondary Daylighting Control Name
  ,                                       !- Fraction of Zone Controlled by Secondary Daylighting Control
  ,                                       !- Illuminance Map Name
  ,                                       !- Group Rendering Name
  ,                                       !- Thermostat Name
  No;                                     !- Use Ideal Air Loads

OS:Node,
  {421762b1-3739-4106-a08f-23a74d9d7565}, !- Handle
  Node 2,                                 !- Name
  {8abe1e8b-58fd-4ab7-92f0-bd1bc256be03}, !- Inlet Port
  ;                                       !- Outlet Port

OS:Connection,
  {8abe1e8b-58fd-4ab7-92f0-bd1bc256be03}, !- Handle
  {110436bd-0d13-4981-be41-d0fa731f06b1}, !- Name
  {a6970267-58b1-4962-bb58-dd39fe0051a0}, !- Source Object
  11,                                     !- Outlet Port
  {421762b1-3739-4106-a08f-23a74d9d7565}, !- Target Object
  2;                                      !- Inlet Port

OS:PortList,
  {9c7865ff-3c27-45ed-83e8-9e809c2e7e03}, !- Handle