!- NOTE: Auto-generated from /test/osw_files/SFD_2000sqft_2story_SL_GRGLeft_FlatRoof.osw

OS:Version,
  {5bf025b5-1723-4ca3-a0a2-879f336ed4d1}, !- Handle
  2.3.1;                                  !- Version Identifier

OS:Building,
  {bf305633-c5a1-4881-9edf-ca5e1a8e1274}, !- Handle
  Building,                               !- Name
  ,                                       !- Building Sector Type
  ,                                       !- North Axis {deg}
  ,                                       !- Nominal Floor to Floor Height {m}
  ,                                       !- Space Type Name
  ,                                       !- Default Construction Set Name
  ,                                       !- Default Schedule Set Name
  2,                                      !- Standards Number of Stories
  2,                                      !- Standards Number of Above Ground Stories
  singlefamilydetached,                   !- Standards Building Type
  1;                                      !- Standards Number of Living Units

OS:YearDescription,
  {513d8dda-86cb-442a-b01c-1f7f0e0ac70e}; !- Handle

OS:SimulationControl,
  {2c487a4c-bac9-4ac5-b669-1e49d9da7c2b}, !- Handle
  ,                                       !- Do Zone Sizing Calculation
  ,                                       !- Do System Sizing Calculation
  ,                                       !- Do Plant Sizing Calculation
  No,                                     !- Run Simulation for Sizing Periods
  ;                                       !- Run Simulation for Weather File Run Periods

OS:Timestep,
  {4ebc9f1e-4707-402e-9844-67eb1ffbd522}, !- Handle
  6;                                      !- Number of Timesteps per Hour

OS:RunPeriod,
  {28df894d-6af9-4fb8-8f56-df1753344aa3}, !- Handle
  Run Period,                             !- Name
  1,                                      !- Begin Month
  1,                                      !- Begin Day of Month
  12,                                     !- End Month
  31,                                     !- End Day of Month
  ,                                       !- Use Weather File Holidays and Special Days
  ,                                       !- Use Weather File Daylight Saving Period
  ,                                       !- Apply Weekend Holiday Rule
  ,                                       !- Use Weather File Rain Indicators
  ,                                       !- Use Weather File Snow Indicators
  ;                                       !- Number of Times Runperiod to be Repeated

OS:Sizing:Parameters,
  {dde5af6f-7923-4600-a28a-7556673a0266}, !- Handle
  1.0,                                    !- Heating Sizing Factor
  1.0;                                    !- Cooling Sizing Factor

OS:ShadowCalculation,
  {ca758bea-4416-4626-9bba-3d8795c79bd6}, !- Handle
  20,                                     !- Calculation Frequency
  200;                                    !- Maximum Figures in Shadow Overlap Calculations

OS:SurfaceConvectionAlgorithm:Inside,
  {aaabfc36-718a-4ab0-b622-f186ebb45230}, !- Handle
  TARP;                                   !- Algorithm

OS:SurfaceConvectionAlgorithm:Outside,
  {9a0a9f6f-4bbd-4b12-a121-9492a1fcd7d6}, !- Handle
  DOE-2;                                  !- Algorithm

OS:HeatBalanceAlgorithm,
  {9d93e563-e1e0-46d7-9e39-d1c8aceb7212}, !- Handle
  ConductionTransferFunction,             !- Algorithm
  200;                                    !- Surface Temperature Upper Limit {C}

OS:ZoneCapacitanceMultiplier:ResearchSpecial,
  {6bfced16-b16f-47f6-8223-f7e267d75d19}, !- Handle
  ,                                       !- Temperature Capacity Multiplier
  15,                                     !- Humidity Capacity Multiplier
  ;                                       !- Carbon Dioxide Capacity Multiplier

OS:ThermalZone,
  {6bb09f78-80ef-4e51-a5c8-970f8eafb789}, !- Handle
  living zone,                            !- Name
  ,                                       !- Multiplier
  ,                                       !- Ceiling Height {m}
  ,                                       !- Volume {m3}
  ,                                       !- Floor Area {m2}
  ,                                       !- Zone Inside Convection Algorithm
  ,                                       !- Zone Outside Convection Algorithm
  ,                                       !- Zone Conditioning Equipment List Name
  {2bbb1fce-2890-49d9-b5cd-fb5bbf1a4563}, !- Zone Air Inlet Port List
  {271e8415-28c0-4d78-8fcf-c259cb84ac8c}, !- Zone Air Exhaust Port List
  {158271f6-e636-45b8-a0b8-5f51abee81c7}, !- Zone Air Node Name
  ,                                       !- Zone Return Air Node Name
  ,                                       !- Primary Daylighting Control Name
  ,                                       !- Fraction of Zone Controlled by Primary Daylighting Control
  ,                                       !- Secondary Daylighting Control Name
  ,                                       !- Fraction of Zone Controlled by Secondary Daylighting Control
  ,                                       !- Illuminance Map Name
  ,                                       !- Group Rendering Name
  ,                                       !- Thermostat Name
  No;                                     !- Use Ideal Air Loads

OS:Node,
  {fe0bc7fe-93bf-4148-8ac7-adff0a965df0}, !- Handle
  Node 1,                                 !- Name
  {158271f6-e636-45b8-a0b8-5f51abee81c7}, !- Inlet Port
  ;                                       !- Outlet Port

OS:Connection,
  {158271f6-e636-45b8-a0b8-5f51abee81c7}, !- Handle
  {8998c162-6b8a-48bb-88c7-4311a094aea5}, !- Name
  {6bb09f78-80ef-4e51-a5c8-970f8eafb789}, !- Source Object
  11,                                     !- Outlet Port
  {fe0bc7fe-93bf-4148-8ac7-adff0a965df0}, !- Target Object
  2;                                      !- Inlet Port

OS:PortList,
  {2bbb1fce-2890-49d9-b5cd-fb5bbf1a4563}, !- Handle
  {f3705cb1-57df-40c1-9690-449a63730f52}, !- Name
  {6bb09f78-80ef-4e51-a5c8-970f8eafb789}; !- HVAC Component

OS:PortList,
  {271e8415-28c0-4d78-8fcf-c259cb84ac8c}, !- Handle
  {10ba8aac-f863-4dd2-bc45-6bf4855cf502}, !- Name
  {6bb09f78-80ef-4e51-a5c8-970f8eafb789}; !- HVAC Component

OS:Sizing:Zone,
  {fa9965ea-aac8-4f34-84c9-c3d9b67b3a25}, !- Handle
  {6bb09f78-80ef-4e51-a5c8-970f8eafb789}, !- Zone or ZoneList Name
  SupplyAirTemperature,                   !- Zone Cooling Design Supply Air Temperature Input Method
  14,                                     !- Zone Cooling Design Supply Air Temperature {C}
  11.11,                                  !- Zone Cooling Design Supply Air Temperature Difference {deltaC}
  SupplyAirTemperature,                   !- Zone Heating Design Supply Air Temperature Input Method
  40,                                     !- Zone Heating Design Supply Air Temperature {C}
  11.11,                                  !- Zone Heating Design Supply Air Temperature Difference {deltaC}
  0.0085,                                 !- Zone Cooling Design Supply Air Humidity Ratio {kg-H2O/kg-air}
  0.008,                                  !- Zone Heating Design Supply Air Humidity Ratio {kg-H2O/kg-air}
  ,                                       !- Zone Heating Sizing Factor
  ,                                       !- Zone Cooling Sizing Factor
  DesignDay,                              !- Cooling Design Air Flow Method
  ,                                       !- Cooling Design Air Flow Rate {m3/s}
  ,                                       !- Cooling Minimum Air Flow per Zone Floor Area {m3/s-m2}
  ,                                       !- Cooling Minimum Air Flow {m3/s}
  ,                                       !- Cooling Minimum Air Flow Fraction
  DesignDay,                              !- Heating Design Air Flow Method
  ,                                       !- Heating Design Air Flow Rate {m3/s}
  ,                                       !- Heating Maximum Air Flow per Zone Floor Area {m3/s-m2}
  ,                                       !- Heating Maximum Air Flow {m3/s}
  ,                                       !- Heating Maximum Air Flow Fraction
  ,                                       !- Design Zone Air Distribution Effectiveness in Cooling Mode
  ,                                       !- Design Zone Air Distribution Effectiveness in Heating Mode
  No,                                     !- Account for Dedicated Outdoor Air System
  NeutralSupplyAir,                       !- Dedicated Outdoor Air System Control Strategy
  autosize,                               !- Dedicated Outdoor Air Low Setpoint Temperature for Design {C}
  autosize;                               !- Dedicated Outdoor Air High Setpoint Temperature for Design {C}

OS:ZoneHVAC:EquipmentList,
  {b2acd394-b828-4215-aa70-5de25b077e57}, !- Handle
  Zone HVAC Equipment List 1,             !- Name
  {6bb09f78-80ef-4e51-a5c8-970f8eafb789}; !- Thermal Zone

OS:ThermalZone,
  {dac22311-7eb0-4245-9056-a756c49f9612}, !- Handle
  garage zone,                            !- Name
  ,                                       !- Multiplier
  ,                                       !- Ceiling Height {m}
  ,                                       !- Volume {m3}
  ,                                       !- Floor Area {m2}
  ,                                       !- Zone Inside Convection Algorithm
  ,                                       !- Zone Outside Convection Algorithm
  ,                                       !- Zone Conditioning Equipment List Name
  {a1370776-f748-4eba-acd9-a65e9816d23b}, !- Zone Air Inlet Port List
  {5f5b01b5-bcd4-4b4e-ac2b-a9eab086c3ce}, !- Zone Air Exhaust Port List
  {0b620cb3-5bc2-4f55-8f35-40145d86e45c}, !- Zone Air Node Name
  ,                                       !- Zone Return Air Node Name
  ,                                       !- Primary Daylighting Control Name
  ,                                       !- Fraction of Zone Controlled by Primary Daylighting Control
  ,                                       !- Secondary Daylighting Control Name
  ,                                       !- Fraction of Zone Controlled by Secondary Daylighting Control
  ,                                       !- Illuminance Map Name
  ,                                       !- Group Rendering Name
  ,                                       !- Thermostat Name
  No;                                     !- Use Ideal Air Loads

OS:Node,
  {9faf877e-f57b-462d-9c59-b07d75b2bf35}, !- Handle
  Node 2,                                 !- Name
  {0b620cb3-5bc2-4f55-8f35-40145d86e45c}, !- Inlet Port
  ;                                       !- Outlet Port

OS:Connection,
  {0b620cb3-5bc2-4f55-8f35-40145d86e45c}, !- Handle
  {3cf92851-9f48-465c-bdf1-396b93284383}, !- Name
  {dac22311-7eb0-4245-9056-a756c49f9612}, !- Source Object
  11,                                     !- Outlet Port
  {9faf877e-f57b-462d-9c59-b07d75b2bf35}, !- Target Object
  2;                                      !- Inlet Port

OS:PortList,
  {a1370776-f748-4eba-acd9-a65e9816d23b}, !- Handle
  {9b466748-fd9a-4df4-8716-013c43eae028}, !- Name
  {dac22311-7eb0-4245-9056-a756c49f9612}; !- HVAC Component

OS:PortList,
  {5f5b01b5-bcd4-4b4e-ac2b-a9eab086c3ce}, !- Handle
  {a235c77e-f5d1-4f8b-8d26-dc16b509c6a8}, !- Name
  {dac22311-7eb0-4245-9056-a756c49f9612}; !- HVAC Component

OS:Sizing:Zone,
  {42beec65-2459-4b91-8bca-d3066b8a92eb}, !- Handle
  {dac22311-7eb0-4245-9056-a756c49f9612}, !- Zone or ZoneList Name
  SupplyAirTemperature,                   !- Zone Cooling Design Supply Air Temperature Input Method
  14,                                     !- Zone Cooling Design Supply Air Temperature {C}
  11.11,                                  !- Zone Cooling Design Supply Air Temperature Difference {deltaC}
  SupplyAirTemperature,                   !- Zone Heating Design Supply Air Temperature Input Method
  40,                                     !- Zone Heating Design Supply Air Temperature {C}
  11.11,                                  !- Zone Heating Design Supply Air Temperature Difference {deltaC}
  0.0085,                                 !- Zone Cooling Design Supply Air Humidity Ratio {kg-H2O/kg-air}
  0.008,                                  !- Zone Heating Design Supply Air Humidity Ratio {kg-H2O/kg-air}
  ,                                       !- Zone Heating Sizing Factor
  ,                                       !- Zone Cooling Sizing Factor
  DesignDay,                              !- Cooling Design Air Flow Method
  ,                                       !- Cooling Design Air Flow Rate {m3/s}
  ,                                       !- Cooling Minimum Air Flow per Zone Floor Area {m3/s-m2}
  ,                                       !- Cooling Minimum Air Flow {m3/s}
  ,                                       !- Cooling Minimum Air Flow Fraction
  DesignDay,                              !- Heating Design Air Flow Method
  ,                                       !- Heating Design Air Flow Rate {m3/s}
  ,                                       !- Heating Maximum Air Flow per Zone Floor Area {m3/s-m2}
  ,                                       !- Heating Maximum Air Flow {m3/s}
  ,                                       !- Heating Maximum Air Flow Fraction
  ,                                       !- Design Zone Air Distribution Effectiveness in Cooling Mode
  ,                                       !- Design Zone Air Distribution Effectiveness in Heating Mode
  No,                                     !- Account for Dedicated Outdoor Air System
  NeutralSupplyAir,                       !- Dedicated Outdoor Air System Control Strategy
  autosize,                               !- Dedicated Outdoor Air Low Setpoint Temperature for Design {C}
  autosize;                               !- Dedicated Outdoor Air High Setpoint Temperature for Design {C}

OS:ZoneHVAC:EquipmentList,
  {74553e40-c78f-46d5-b142-758ee6061923}, !- Handle
  Zone HVAC Equipment List 2,             !- Name
  {dac22311-7eb0-4245-9056-a756c49f9612}; !- Thermal Zone

OS:Space,
  {1187a67f-9fe2-4416-96cc-947a09c24ac0}, !- Handle
  garage space,                           !- Name
  ,                                       !- Space Type Name
  ,                                       !- Default Construction Set Name
  ,                                       !- Default Schedule Set Name
  -0,                                     !- Direction of Relative North {deg}
  0,                                      !- X Origin {m}
  0,                                      !- Y Origin {m}
  0,                                      !- Z Origin {m}
  ,                                       !- Building Story Name
  {dac22311-7eb0-4245-9056-a756c49f9612}, !- Thermal Zone Name
  ,                                       !- Part of Total Floor Area
  ,                                       !- Design Specification Outdoor Air Object Name
  {447b59d2-8046-460e-9a66-b0767ba3dcd2}; !- Building Unit Name

OS:Surface,
  {b2ea2d6e-f19e-4728-853d-b546953a766e}, !- Handle
  Surface 1,                              !- Name
  Floor,                                  !- Surface Type
  ,                                       !- Construction Name
  {1187a67f-9fe2-4416-96cc-947a09c24ac0}, !- Space Name
  Ground,                                 !- Outside Boundary Condition
  ,                                       !- Outside Boundary Condition Object
  NoSun,                                  !- Sun Exposure
  NoWind,                                 !- Wind Exposure
  ,                                       !- View Factor to Ground
  ,                                       !- Number of Vertices
  0, -3.048, 0,                           !- X,Y,Z Vertex 1 {m}
  0, 3.048, 0,                            !- X,Y,Z Vertex 2 {m}
  6.096, 3.048, 0,                        !- X,Y,Z Vertex 3 {m}
  6.096, -3.048, 0;                       !- X,Y,Z Vertex 4 {m}

OS:Surface,
  {26779495-ed06-4cd6-b4c5-347bd6824217}, !- Handle
  Surface 2,                              !- Name
  Wall,                                   !- Surface Type
  ,                                       !- Construction Name
  {1187a67f-9fe2-4416-96cc-947a09c24ac0}, !- Space Name
  Outdoors,                               !- Outside Boundary Condition
  ,                                       !- Outside Boundary Condition Object
  SunExposed,                             !- Sun Exposure
  WindExposed,                            !- Wind Exposure
  ,                                       !- View Factor to Ground
  ,                                       !- Number of Vertices
  0, 3.048, 2.4384,                       !- X,Y,Z Vertex 1 {m}
  0, 3.048, 0,                            !- X,Y,Z Vertex 2 {m}
  0, -3.048, 0,                           !- X,Y,Z Vertex 3 {m}
  0, -3.048, 2.4384;                      !- X,Y,Z Vertex 4 {m}

OS:Surface,
  {08bd3967-d485-4f27-9a08-0eb80b031a9a}, !- Handle
  Surface 3,                              !- Name
  Wall,                                   !- Surface Type
  ,                                       !- Construction Name
  {1187a67f-9fe2-4416-96cc-947a09c24ac0}, !- Space Name
  Surface,                                !- Outside Boundary Condition
  {fd9d2531-3a48-47d5-bbb8-c865f46e7eac}, !- Outside Boundary Condition Object
  NoSun,                                  !- Sun Exposure
  NoWind,                                 !- Wind Exposure
  ,                                       !- View Factor to Ground
  ,                                       !- Number of Vertices
  6.096, 3.048, 2.4384,                   !- X,Y,Z Vertex 1 {m}
  6.096, 3.048, 0,                        !- X,Y,Z Vertex 2 {m}
  0, 3.048, 0,                            !- X,Y,Z Vertex 3 {m}
  0, 3.048, 2.4384;                       !- X,Y,Z Vertex 4 {m}

OS:Surface,
  {867d4b66-c64a-4591-811b-f022a559746d}, !- Handle
  Surface 4,                              !- Name
  Wall,                                   !- Surface Type
  ,                                       !- Construction Name
  {1187a67f-9fe2-4416-96cc-947a09c24ac0}, !- Space Name
  Surface,                                !- Outside Boundary Condition
  {28cbfe2e-5e8e-4bd3-8bce-4f1550a6dcb7}, !- Outside Boundary Condition Object
  NoSun,                                  !- Sun Exposure
  NoWind,                                 !- Wind Exposure
  ,                                       !- View Factor to Ground
  ,                                       !- Number of Vertices
  6.096, 0, 2.4384,                       !- X,Y,Z Vertex 1 {m}
  6.096, 0, 0,                            !- X,Y,Z Vertex 2 {m}
  6.096, 3.048, 0,                        !- X,Y,Z Vertex 3 {m}
  6.096, 3.048, 2.4384;                   !- X,Y,Z Vertex 4 {m}

OS:Surface,
  {524fe1a5-89da-4004-9241-a1b5ca80664f}, !- Handle
  Surface 5,                              !- Name
  Wall,                                   !- Surface Type
  ,                                       !- Construction Name
  {1187a67f-9fe2-4416-96cc-947a09c24ac0}, !- Space Name
  Outdoors,                               !- Outside Boundary Condition
  ,                                       !- Outside Boundary Condition Object
  SunExposed,                             !- Sun Exposure
  WindExposed,                            !- Wind Exposure
  ,                                       !- View Factor to Ground
  ,                                       !- Number of Vertices
  0, -3.048, 2.4384,                      !- X,Y,Z Vertex 1 {m}
  0, -3.048, 0,                           !- X,Y,Z Vertex 2 {m}
  6.096, -3.048, 0,                       !- X,Y,Z Vertex 3 {m}
  6.096, -3.048, 2.4384;                  !- X,Y,Z Vertex 4 {m}

OS:Surface,
  {e35031b3-2df3-4de5-9195-05b39ed04d5e}, !- Handle
  Surface 6,                              !- Name
  RoofCeiling,                            !- Surface Type
  ,                                       !- Construction Name
  {1187a67f-9fe2-4416-96cc-947a09c24ac0}, !- Space Name
  Surface,                                !- Outside Boundary Condition
  {9386b826-0f39-497a-aaab-7f0f8e1eb36b}, !- Outside Boundary Condition Object
  NoSun,                                  !- Sun Exposure
  NoWind,                                 !- Wind Exposure
  ,                                       !- View Factor to Ground
  ,                                       !- Number of Vertices
  6.096, -3.048, 2.4384,                  !- X,Y,Z Vertex 1 {m}
  6.096, 0, 2.4384,                       !- X,Y,Z Vertex 2 {m}
  6.096, 3.048, 2.4384,                   !- X,Y,Z Vertex 3 {m}
  0, 3.048, 2.4384,                       !- X,Y,Z Vertex 4 {m}
  0, -3.048, 2.4384;                      !- X,Y,Z Vertex 5 {m}

OS:Space,
  {047ba426-637d-48c8-8e20-5d5ceb24fefa}, !- Handle
  living space,                           !- Name
  ,                                       !- Space Type Name
  ,                                       !- Default Construction Set Name
  ,                                       !- Default Schedule Set Name
  -0,                                     !- Direction of Relative North {deg}
  0,                                      !- X Origin {m}
  0,                                      !- Y Origin {m}
  0,                                      !- Z Origin {m}
  ,                                       !- Building Story Name
  {6bb09f78-80ef-4e51-a5c8-970f8eafb789}, !- Thermal Zone Name
  ,                                       !- Part of Total Floor Area
  ,                                       !- Design Specification Outdoor Air Object Name
  {447b59d2-8046-460e-9a66-b0767ba3dcd2}; !- Building Unit Name

OS:Surface,
  {cc891054-f535-46ed-8748-91d25445e9d2}, !- Handle
  Surface 7,                              !- Name
  Floor,                                  !- Surface Type
  ,                                       !- Construction Name
  {047ba426-637d-48c8-8e20-5d5ceb24fefa}, !- Space Name
  Ground,                                 !- Outside Boundary Condition
  ,                                       !- Outside Boundary Condition Object
  NoSun,                                  !- Sun Exposure
  NoWind,                                 !- Wind Exposure
  ,                                       !- View Factor to Ground
  ,                                       !- Number of Vertices
  0, 3.048, 0,                            !- X,Y,Z Vertex 1 {m}
  0, 6.81553519541936, 0,                 !- X,Y,Z Vertex 2 {m}
  13.6310703908387, 6.81553519541936, 0,  !- X,Y,Z Vertex 3 {m}
  13.6310703908387, 0, 0,                 !- X,Y,Z Vertex 4 {m}
  6.096, 0, 0,                            !- X,Y,Z Vertex 5 {m}
  6.096, 3.048, 0;                        !- X,Y,Z Vertex 6 {m}

OS:Surface,
  {1a2d6c6e-3527-4546-a979-bd81518849e8}, !- Handle
  Surface 8,                              !- Name
  Wall,                                   !- Surface Type
  ,                                       !- Construction Name
  {047ba426-637d-48c8-8e20-5d5ceb24fefa}, !- Space Name
  Outdoors,                               !- Outside Boundary Condition
  ,                                       !- Outside Boundary Condition Object
  SunExposed,                             !- Sun Exposure
  WindExposed,                            !- Wind Exposure
  ,                                       !- View Factor to Ground
  ,                                       !- Number of Vertices
  0, 6.81553519541936, 2.4384,            !- X,Y,Z Vertex 1 {m}
  0, 6.81553519541936, 0,                 !- X,Y,Z Vertex 2 {m}
  0, 3.048, 0,                            !- X,Y,Z Vertex 3 {m}
  0, 3.048, 2.4384;                       !- X,Y,Z Vertex 4 {m}

OS:Surface,
  {4a0dec12-cee7-49c6-a87e-4fbdd8ff5b36}, !- Handle
  Surface 9,                              !- Name
  Wall,                                   !- Surface Type
  ,                                       !- Construction Name
  {047ba426-637d-48c8-8e20-5d5ceb24fefa}, !- Space Name
  Outdoors,                               !- Outside Boundary Condition
  ,                                       !- Outside Boundary Condition Object
  SunExposed,                             !- Sun Exposure
  WindExposed,                            !- Wind Exposure
  ,                                       !- View Factor to Ground
  ,                                       !- Number of Vertices
  13.6310703908387, 6.81553519541936, 2.4384, !- X,Y,Z Vertex 1 {m}
  13.6310703908387, 6.81553519541936, 0,  !- X,Y,Z Vertex 2 {m}
  0, 6.81553519541936, 0,                 !- X,Y,Z Vertex 3 {m}
  0, 6.81553519541936, 2.4384;            !- X,Y,Z Vertex 4 {m}

OS:Surface,
  {76548fba-472c-434a-a066-d7ccc4b71942}, !- Handle
  Surface 10,                             !- Name
  Wall,                                   !- Surface Type
  ,                                       !- Construction Name
  {047ba426-637d-48c8-8e20-5d5ceb24fefa}, !- Space Name
  Outdoors,                               !- Outside Boundary Condition
  ,                                       !- Outside Boundary Condition Object
  SunExposed,                             !- Sun Exposure
  WindExposed,                            !- Wind Exposure
  ,                                       !- View Factor to Ground
  ,                                       !- Number of Vertices
  13.6310703908387, 0, 2.4384,            !- X,Y,Z Vertex 1 {m}
  13.6310703908387, 0, 0,                 !- X,Y,Z Vertex 2 {m}
  13.6310703908387, 6.81553519541936, 0,  !- X,Y,Z Vertex 3 {m}
  13.6310703908387, 6.81553519541936, 2.4384; !- X,Y,Z Vertex 4 {m}

OS:Surface,
  {d9d2523e-8867-41ea-8a42-423aebde3051}, !- Handle
  Surface 11,                             !- Name
  Wall,                                   !- Surface Type
  ,                                       !- Construction Name
  {047ba426-637d-48c8-8e20-5d5ceb24fefa}, !- Space Name
  Outdoors,                               !- Outside Boundary Condition
  ,                                       !- Outside Boundary Condition Object
  SunExposed,                             !- Sun Exposure
  WindExposed,                            !- Wind Exposure
  ,                                       !- View Factor to Ground
  ,                                       !- Number of Vertices
  6.096, 0, 2.4384,                       !- X,Y,Z Vertex 1 {m}
  6.096, 0, 0,                            !- X,Y,Z Vertex 2 {m}
  13.6310703908387, 0, 0,                 !- X,Y,Z Vertex 3 {m}
  13.6310703908387, 0, 2.4384;            !- X,Y,Z Vertex 4 {m}

OS:Surface,
  {28cbfe2e-5e8e-4bd3-8bce-4f1550a6dcb7}, !- Handle
  Surface 12,                             !- Name
  Wall,                                   !- Surface Type
  ,                                       !- Construction Name
  {047ba426-637d-48c8-8e20-5d5ceb24fefa}, !- Space Name
  Surface,                                !- Outside Boundary Condition
  {867d4b66-c64a-4591-811b-f022a559746d}, !- Outside Boundary Condition Object
  NoSun,                                  !- Sun Exposure
  NoWind,                                 !- Wind Exposure
  ,                                       !- View Factor to Ground
  ,                                       !- Number of Vertices
  6.096, 3.048, 2.4384,                   !- X,Y,Z Vertex 1 {m}
  6.096, 3.048, 0,                        !- X,Y,Z Vertex 2 {m}
  6.096, 0, 0,                            !- X,Y,Z Vertex 3 {m}
  6.096, 0, 2.4384;                       !- X,Y,Z Vertex 4 {m}

OS:Surface,
  {fd9d2531-3a48-47d5-bbb8-c865f46e7eac}, !- Handle
  Surface 13,                             !- Name
  Wall,                                   !- Surface Type
  ,                                       !- Construction Name
  {047ba426-637d-48c8-8e20-5d5ceb24fefa}, !- Space Name
  Surface,                                !- Outside Boundary Condition
  {08bd3967-d485-4f27-9a08-0eb80b031a9a}, !- Outside Boundary Condition Object
  NoSun,                                  !- Sun Exposure
  NoWind,                                 !- Wind Exposure
  ,                                       !- View Factor to Ground
  ,                                       !- Number of Vertices
  0, 3.048, 2.4384,                       !- X,Y,Z Vertex 1 {m}
  0, 3.048, 0,                            !- X,Y,Z Vertex 2 {m}
  6.096, 3.048, 0,                        !- X,Y,Z Vertex 3 {m}
  6.096, 3.048, 2.4384;                   !- X,Y,Z Vertex 4 {m}

OS:Surface,
  {f4e3957f-067a-489b-9e38-62385e85d1b4}, !- Handle
  Surface 14,                             !- Name
  RoofCeiling,                            !- Surface Type
  ,                                       !- Construction Name
  {047ba426-637d-48c8-8e20-5d5ceb24fefa}, !- Space Name
  Surface,                                !- Outside Boundary Condition
  {134b8844-43ae-4472-97f2-ed701bf9e070}, !- Outside Boundary Condition Object
  NoSun,                                  !- Sun Exposure
  NoWind,                                 !- Wind Exposure
  ,                                       !- View Factor to Ground
  ,                                       !- Number of Vertices
  6.096, 3.048, 2.4384,                   !- X,Y,Z Vertex 1 {m}
  6.096, 0, 2.4384,                       !- X,Y,Z Vertex 2 {m}
  13.6310703908387, 0, 2.4384,            !- X,Y,Z Vertex 3 {m}
  13.6310703908387, 6.81553519541936, 2.4384, !- X,Y,Z Vertex 4 {m}
  0, 6.81553519541936, 2.4384,            !- X,Y,Z Vertex 5 {m}
  0, 3.048, 2.4384;                       !- X,Y,Z Vertex 6 {m}

OS:Space,
  {574ffc6f-403f-4992-8884-148a14b73ffa}, !- Handle
  living space|story 2,                   !- Name
  ,                                       !- Space Type Name
  ,                                       !- Default Construction Set Name
  ,                                       !- Default Schedule Set Name
  -0,                                     !- Direction of Relative North {deg}