!- NOTE: Auto-generated from /test/osw_files/SFD_2000sqft_1story_SL_GRG_FlatRoof.osw

OS:Version,
  {fc003c06-618b-4051-9b37-6b6f71b12672}, !- Handle
  2.2.0;                                  !- Version Identifier

OS:Building,
  {bf305633-c5a1-4881-9edf-ca5e1a8e1274}, !- Handle
  Building,                               !- Name
  ,                                       !- Building Sector Type
  ,                                       !- North Axis {deg}
  ,                                       !- Nominal Floor to Floor Height {m}
  ,                                       !- Space Type Name
  ,                                       !- Default Construction Set Name
  ,                                       !- Default Schedule Set Name
  1,                                      !- Standards Number of Stories
  1,                                      !- Standards Number of Above Ground Stories
  singlefamilydetached,                   !- Standards Building Type
  1;                                      !- Standards Number of Living Units

OS:YearDescription,
  {513d8dda-86cb-442a-b01c-1f7f0e0ac70e}; !- Handle

OS:SimulationControl,
  {2c487a4c-bac9-4ac5-b669-1e49d9da7c2b}, !- Handle
  ,                                       !- Do Zone Sizing Calculation
  ,                                       !- Do System Sizing Calculation
  ,                                       !- Do Plant Sizing Calculation
  No,                                     !- Run Simulation for Sizing Periods
  ;                                       !- Run Simulation for Weather File Run Periods

OS:Timestep,
  {4ebc9f1e-4707-402e-9844-67eb1ffbd522}, !- Handle
  6;                                      !- Number of Timesteps per Hour

OS:RunPeriod,
  {28df894d-6af9-4fb8-8f56-df1753344aa3}, !- Handle
  Run Period,                             !- Name
  1,                                      !- Begin Month
  1,                                      !- Begin Day of Month
  12,                                     !- End Month
  31,                                     !- End Day of Month
  ,                                       !- Use Weather File Holidays and Special Days
  ,                                       !- Use Weather File Daylight Saving Period
  ,                                       !- Apply Weekend Holiday Rule
  ,                                       !- Use Weather File Rain Indicators
  ,                                       !- Use Weather File Snow Indicators
  ;                                       !- Number of Times Runperiod to be Repeated

OS:Sizing:Parameters,
  {dde5af6f-7923-4600-a28a-7556673a0266}, !- Handle
  1.0,                                    !- Heating Sizing Factor
  1.0;                                    !- Cooling Sizing Factor

OS:ShadowCalculation,
  {ca758bea-4416-4626-9bba-3d8795c79bd6}, !- Handle
  20,                                     !- Calculation Frequency
  200;                                    !- Maximum Figures in Shadow Overlap Calculations

OS:SurfaceConvectionAlgorithm:Inside,
  {aaabfc36-718a-4ab0-b622-f186ebb45230}, !- Handle
  TARP;                                   !- Algorithm

OS:SurfaceConvectionAlgorithm:Outside,
  {9a0a9f6f-4bbd-4b12-a121-9492a1fcd7d6}, !- Handle
  DOE-2;                                  !- Algorithm

OS:HeatBalanceAlgorithm,
  {9d93e563-e1e0-46d7-9e39-d1c8aceb7212}, !- Handle
  ConductionTransferFunction,             !- Algorithm
  200;                                    !- Surface Temperature Upper Limit {C}

OS:ZoneCapacitanceMultiplier:ResearchSpecial,
  {6bfced16-b16f-47f6-8223-f7e267d75d19}, !- Handle
  ,                                       !- Temperature Capacity Multiplier
  15,                                     !- Humidity Capacity Multiplier
  ;                                       !- Carbon Dioxide Capacity Multiplier

OS:ThermalZone,
  {4fb96f5b-0eb2-4c1a-af73-7d7d155bab5b}, !- Handle
  living zone,                            !- Name
  ,                                       !- Multiplier
  ,                                       !- Ceiling Height {m}
  ,                                       !- Volume {m3}
  ,                                       !- Floor Area {m2}
  ,                                       !- Zone Inside Convection Algorithm
  ,                                       !- Zone Outside Convection Algorithm
  ,                                       !- Zone Conditioning Equipment List Name
  {da402853-fade-4fd5-b371-d4edb069f831}, !- Zone Air Inlet Port List
  {0e873645-0517-46c6-baff-74de5405185c}, !- Zone Air Exhaust Port List
  {bba78e14-599d-49a0-a6ea-db7c58f034a5}, !- Zone Air Node Name
  ,                                       !- Zone Return Air Node Name
  ,                                       !- Primary Daylighting Control Name
  ,                                       !- Fraction of Zone Controlled by Primary Daylighting Control
  ,                                       !- Secondary Daylighting Control Name
  ,                                       !- Fraction of Zone Controlled by Secondary Daylighting Control
  ,                                       !- Illuminance Map Name
  ,                                       !- Group Rendering Name
  ,                                       !- Thermostat Name
  No;                                     !- Use Ideal Air Loads

OS:Node,
  {0f7806c6-355f-4b56-8d7f-4e0fa7caf576}, !- Handle
  Node 1,                                 !- Name
  {bba78e14-599d-49a0-a6ea-db7c58f034a5}, !- Inlet Port
  ;                                       !- Outlet Port

OS:Connection,
  {bba78e14-599d-49a0-a6ea-db7c58f034a5}, !- Handle
  {5cb94c62-1314-43bb-81e3-2c90ebe458d2}, !- Name
  {4fb96f5b-0eb2-4c1a-af73-7d7d155bab5b}, !- Source Object
  11,                                     !- Outlet Port
  {0f7806c6-355f-4b56-8d7f-4e0fa7caf576}, !- Target Object
  2;                                      !- Inlet Port

OS:PortList,
  {da402853-fade-4fd5-b371-d4edb069f831}, !- Handle
  {ae8156e1-3f73-4e2d-893b-eb5d644d479f}, !- Name
  {4fb96f5b-0eb2-4c1a-af73-7d7d155bab5b}; !- HVAC Component

OS:PortList,
  {0e873645-0517-46c6-baff-74de5405185c}, !- Handle
  {9e7b8840-0d6b-4334-a799-bd14d2eea8ce}, !- Name
  {4fb96f5b-0eb2-4c1a-af73-7d7d155bab5b}; !- HVAC Component

OS:Sizing:Zone,
  {7b63f44e-c273-4654-ac93-3031f37d04cd}, !- Handle
  {4fb96f5b-0eb2-4c1a-af73-7d7d155bab5b}, !- Zone or ZoneList Name
  SupplyAirTemperature,                   !- Zone Cooling Design Supply Air Temperature Input Method
  14,                                     !- Zone Cooling Design Supply Air Temperature {C}
  11.11,                                  !- Zone Cooling Design Supply Air Temperature Difference {deltaC}
  SupplyAirTemperature,                   !- Zone Heating Design Supply Air Temperature Input Method
  40,                                     !- Zone Heating Design Supply Air Temperature {C}
  11.11,                                  !- Zone Heating Design Supply Air Temperature Difference {deltaC}
  0.0085,                                 !- Zone Cooling Design Supply Air Humidity Ratio {kg-H2O/kg-air}
  0.008,                                  !- Zone Heating Design Supply Air Humidity Ratio {kg-H2O/kg-air}
  ,                                       !- Zone Heating Sizing Factor
  ,                                       !- Zone Cooling Sizing Factor
  DesignDay,                              !- Cooling Design Air Flow Method
  ,                                       !- Cooling Design Air Flow Rate {m3/s}
  ,                                       !- Cooling Minimum Air Flow per Zone Floor Area {m3/s-m2}
  ,                                       !- Cooling Minimum Air Flow {m3/s}
  ,                                       !- Cooling Minimum Air Flow Fraction
  DesignDay,                              !- Heating Design Air Flow Method
  ,                                       !- Heating Design Air Flow Rate {m3/s}
  ,                                       !- Heating Maximum Air Flow per Zone Floor Area {m3/s-m2}
  ,                                       !- Heating Maximum Air Flow {m3/s}
  ,                                       !- Heating Maximum Air Flow Fraction
  ,                                       !- Design Zone Air Distribution Effectiveness in Cooling Mode
  ,                                       !- Design Zone Air Distribution Effectiveness in Heating Mode
  No,                                     !- Account for Dedicated Outdoor Air System
  NeutralSupplyAir,                       !- Dedicated Outdoor Air System Control Strategy
  autosize,                               !- Dedicated Outdoor Air Low Setpoint Temperature for Design {C}
  autosize;                               !- Dedicated Outdoor Air High Setpoint Temperature for Design {C}

OS:ZoneHVAC:EquipmentList,
  {5f6355d3-cd69-4070-9090-3196bbdfd79a}, !- Handle
  Zone HVAC Equipment List 1,             !- Name
  {4fb96f5b-0eb2-4c1a-af73-7d7d155bab5b}; !- Thermal Zone

OS:ThermalZone,
  {a26fa6a3-d9d9-43ad-8dd0-1c73b694340f}, !- Handle
  garage zone,                            !- Name
  ,                                       !- Multiplier
  ,                                       !- Ceiling Height {m}
  ,                                       !- Volume {m3}
  ,                                       !- Floor Area {m2}
  ,                                       !- Zone Inside Convection Algorithm
  ,                                       !- Zone Outside Convection Algorithm
  ,                                       !- Zone Conditioning Equipment List Name
  {d7c2233f-b028-4c33-aab7-a64f46bb59da}, !- Zone Air Inlet Port List
  {62bac81b-8036-4538-8b5d-aaeaa7ef63cd}, !- Zone Air Exhaust Port List
  {804579cc-4f67-4ccd-9382-3f7c254c0b1d}, !- Zone Air Node Name
  ,                                       !- Zone Return Air Node Name
  ,                                       !- Primary Daylighting Control Name
  ,                                       !- Fraction of Zone Controlled by Primary Daylighting Control
  ,                                       !- Secondary Daylighting Control Name
  ,                                       !- Fraction of Zone Controlled by Secondary Daylighting Control
  ,                                       !- Illuminance Map Name
  ,                                       !- Group Rendering Name
  ,                                       !- Thermostat Name
  No;                                     !- Use Ideal Air Loads

OS:Node,
  {0c335c0f-711f-4da5-8af2-52a8253504cd}, !- Handle
  Node 2,                                 !- Name
  {804579cc-4f67-4ccd-9382-3f7c254c0b1d}, !- Inlet Port
  ;                                       !- Outlet Port

OS:Connection,
  {804579cc-4f67-4ccd-9382-3f7c254c0b1d}, !- Handle
  {4a1bdaca-cb8e-4c0d-ae16-1158a84448f2}, !- Name
  {a26fa6a3-d9d9-43ad-8dd0-1c73b694340f}, !- Source Object
  11,                                     !- Outlet Port
  {0c335c0f-711f-4da5-8af2-52a8253504cd}, !- Target Object
  2;                                      !- Inlet Port

OS:PortList,
  {d7c2233f-b028-4c33-aab7-a64f46bb59da}, !- Handle
  {6b6219b8-9475-446b-a199-e3522ff18864}, !- Name
  {a26fa6a3-d9d9-43ad-8dd0-1c73b694340f}; !- HVAC Component

OS:PortList,
  {62bac81b-8036-4538-8b5d-aaeaa7ef63cd}, !- Handle
  {ca491d83-8643-450c-a53e-45dfb9ffb70d}, !- Name
  {a26fa6a3-d9d9-43ad-8dd0-1c73b694340f}; !- HVAC Component

OS:Sizing:Zone,
  {9fa19d77-d019-4043-8a5b-1160ed5dda1a}, !- Handle
  {a26fa6a3-d9d9-43ad-8dd0-1c73b694340f}, !- Zone or ZoneList Name
  SupplyAirTemperature,                   !- Zone Cooling Design Supply Air Temperature Input Method
  14,                                     !- Zone Cooling Design Supply Air Temperature {C}
  11.11,                                  !- Zone Cooling Design Supply Air Temperature Difference {deltaC}
  SupplyAirTemperature,                   !- Zone Heating Design Supply Air Temperature Input Method
  40,                                     !- Zone Heating Design Supply Air Temperature {C}
  11.11,                                  !- Zone Heating Design Supply Air Temperature Difference {deltaC}
  0.0085,                                 !- Zone Cooling Design Supply Air Humidity Ratio {kg-H2O/kg-air}
  0.008,                                  !- Zone Heating Design Supply Air Humidity Ratio {kg-H2O/kg-air}
  ,                                       !- Zone Heating Sizing Factor
  ,                                       !- Zone Cooling Sizing Factor
  DesignDay,                              !- Cooling Design Air Flow Method
  ,                                       !- Cooling Design Air Flow Rate {m3/s}
  ,                                       !- Cooling Minimum Air Flow per Zone Floor Area {m3/s-m2}
  ,                                       !- Cooling Minimum Air Flow {m3/s}
  ,                                       !- Cooling Minimum Air Flow Fraction
  DesignDay,                              !- Heating Design Air Flow Method
  ,                                       !- Heating Design Air Flow Rate {m3/s}
  ,                                       !- Heating Maximum Air Flow per Zone Floor Area {m3/s-m2}
  ,                                       !- Heating Maximum Air Flow {m3/s}
  ,                                       !- Heating Maximum Air Flow Fraction
  ,                                       !- Design Zone Air Distribution Effectiveness in Cooling Mode
  ,                                       !- Design Zone Air Distribution Effectiveness in Heating Mode
  No,                                     !- Account for Dedicated Outdoor Air System
  NeutralSupplyAir,                       !- Dedicated Outdoor Air System Control Strategy
  autosize,                               !- Dedicated Outdoor Air Low Setpoint Temperature for Design {C}
  autosize;                               !- Dedicated Outdoor Air High Setpoint Temperature for Design {C}

OS:ZoneHVAC:EquipmentList,
  {f2dd336e-e878-4c05-8b1b-47795313a7f4}, !- Handle
  Zone HVAC Equipment List 2,             !- Name
  {a26fa6a3-d9d9-43ad-8dd0-1c73b694340f}; !- Thermal Zone

OS:Space,
  {267477eb-9509-423a-a94e-e73d553bc48d}, !- Handle
  garage space,                           !- Name
  {1c679f0b-a588-4cc3-97c2-35c006bd4f07}, !- Space Type Name
  ,                                       !- Default Construction Set Name
  ,                                       !- Default Schedule Set Name
  -0,                                     !- Direction of Relative North {deg}
  0,                                      !- X Origin {m}
  0,                                      !- Y Origin {m}
  0,                                      !- Z Origin {m}
  ,                                       !- Building Story Name
  {a26fa6a3-d9d9-43ad-8dd0-1c73b694340f}, !- Thermal Zone Name
  ,                                       !- Part of Total Floor Area
  ,                                       !- Design Specification Outdoor Air Object Name
  {32647b86-51f0-4f6b-b30c-361d347338f9}; !- Building Unit Name

OS:Surface,
  {0bd648a7-3aed-408a-9297-fa44f95fbed6}, !- Handle
  Surface 1,                              !- Name
  Floor,                                  !- Surface Type
  ,                                       !- Construction Name
  {267477eb-9509-423a-a94e-e73d553bc48d}, !- Space Name
  Ground,                                 !- Outside Boundary Condition
  ,                                       !- Outside Boundary Condition Object
  NoSun,                                  !- Sun Exposure
  NoWind,                                 !- Wind Exposure
  ,                                       !- View Factor to Ground
  ,                                       !- Number of Vertices
  14.1221447220065, -3.048, 0,            !- X,Y,Z Vertex 1 {m}
  14.1221447220065, 3.048, 0,             !- X,Y,Z Vertex 2 {m}
  20.2181447220065, 3.048, 0,             !- X,Y,Z Vertex 3 {m}
  20.2181447220065, -3.048, 0;            !- X,Y,Z Vertex 4 {m}

OS:Surface,
  {7a4fe653-776d-46f2-ae73-fa962830e18a}, !- Handle
  Surface 2,                              !- Name
  Wall,                                   !- Surface Type
  ,                                       !- Construction Name
  {267477eb-9509-423a-a94e-e73d553bc48d}, !- Space Name
  Surface,                                !- Outside Boundary Condition
  {c6f459f1-ead2-4dcc-8034-d59de61e4c83}, !- Outside Boundary Condition Object
  NoSun,                                  !- Sun Exposure
  NoWind,                                 !- Wind Exposure
  ,                                       !- View Factor to Ground
  ,                                       !- Number of Vertices
  14.1221447220065, 3.048, 2.4384,        !- X,Y,Z Vertex 1 {m}
  14.1221447220065, 3.048, 0,             !- X,Y,Z Vertex 2 {m}
  14.1221447220065, 0, 0,                 !- X,Y,Z Vertex 3 {m}
  14.1221447220065, 0, 2.4384;            !- X,Y,Z Vertex 4 {m}

OS:Surface,
  {624ab3b0-89fc-4c74-8087-87a4575c81d7}, !- Handle
  Surface 3,                              !- Name
  Wall,                                   !- Surface Type
  ,                                       !- Construction Name
  {267477eb-9509-423a-a94e-e73d553bc48d}, !- Space Name
  Surface,                                !- Outside Boundary Condition
  {a2c28ab1-59c3-4185-8804-9ec26c06531b}, !- Outside Boundary Condition Object
  NoSun,                                  !- Sun Exposure
  NoWind,                                 !- Wind Exposure
  ,                                       !- View Factor to Ground
  ,                                       !- Number of Vertices
  20.2181447220065, 3.048, 2.4384,        !- X,Y,Z Vertex 1 {m}
  20.2181447220065, 3.048, 0,             !- X,Y,Z Vertex 2 {m}
  14.1221447220065, 3.048, 0,             !- X,Y,Z Vertex 3 {m}
  14.1221447220065, 3.048, 2.4384;        !- X,Y,Z Vertex 4 {m}

OS:Surface,
  {d3c787c9-bdf4-4b31-954d-3744bd226a78}, !- Handle
  Surface 4,                              !- Name
  Wall,                                   !- Surface Type
  ,                                       !- Construction Name
  {267477eb-9509-423a-a94e-e73d553bc48d}, !- Space Name
  Outdoors,                               !- Outside Boundary Condition
  ,                                       !- Outside Boundary Condition Object
  SunExposed,                             !- Sun Exposure
  WindExposed,                            !- Wind Exposure
  ,                                       !- View Factor to Ground
  ,                                       !- Number of Vertices
  20.2181447220065, -3.048, 2.4384,       !- X,Y,Z Vertex 1 {m}
  20.2181447220065, -3.048, 0,            !- X,Y,Z Vertex 2 {m}
  20.2181447220065, 3.048, 0,             !- X,Y,Z Vertex 3 {m}
  20.2181447220065, 3.048, 2.4384;        !- X,Y,Z Vertex 4 {m}

OS:Surface,
  {4142c363-7d2d-4f47-a06b-e15e8dd3b5c2}, !- Handle
  Surface 5,                              !- Name
  Wall,                                   !- Surface Type
  ,                                       !- Construction Name
  {267477eb-9509-423a-a94e-e73d553bc48d}, !- Space Name
  Outdoors,                               !- Outside Boundary Condition
  ,                                       !- Outside Boundary Condition Object
  SunExposed,                             !- Sun Exposure
  WindExposed,                            !- Wind Exposure
  ,                                       !- View Factor to Ground
  ,                                       !- Number of Vertices
  14.1221447220065, -3.048, 2.4384,       !- X,Y,Z Vertex 1 {m}
  14.1221447220065, -3.048, 0,            !- X,Y,Z Vertex 2 {m}
  20.2181447220065, -3.048, 0,            !- X,Y,Z Vertex 3 {m}
  20.2181447220065, -3.048, 2.4384;       !- X,Y,Z Vertex 4 {m}

OS:Surface,
  {a25013f9-e5e3-47ec-82bb-2a5d80460dde}, !- Handle
  Surface 6,                              !- Name
  RoofCeiling,                            !- Surface Type
  ,                                       !- Construction Name
  {267477eb-9509-423a-a94e-e73d553bc48d}, !- Space Name
  Outdoors,                               !- Outside Boundary Condition
  ,                                       !- Outside Boundary Condition Object
  SunExposed,                             !- Sun Exposure
  WindExposed,                            !- Wind Exposure
  ,                                       !- View Factor to Ground
  ,                                       !- Number of Vertices
  20.2181447220065, -3.048, 2.4384,       !- X,Y,Z Vertex 1 {m}
  20.2181447220065, 3.048, 2.4384,        !- X,Y,Z Vertex 2 {m}
  14.1221447220065, 3.048, 2.4384,        !- X,Y,Z Vertex 3 {m}
  14.1221447220065, -3.048, 2.4384;       !- X,Y,Z Vertex 4 {m}

OS:SpaceType,
  {1c679f0b-a588-4cc3-97c2-35c006bd4f07}, !- Handle
  Space Type 1,                           !- Name
  ,                                       !- Default Construction Set Name
  ,                                       !- Default Schedule Set Name
  ,                                       !- Group Rendering Name
  ,                                       !- Design Specification Outdoor Air Object Name
  ,                                       !- Standards Building Type
  garage;                                 !- Standards Space Type

OS:Space,
  {2cb5f3a9-5f76-4607-8693-9f07aa3df550}, !- Handle
  living space,                           !- Name
  {b31be00c-fe70-47db-8ef5-b0b702625032}, !- Space Type Name
  ,                                       !- Default Construction Set Name
  ,                                       !- Default Schedule Set Name
  -0,                                     !- Direction of Relative North {deg}
  0,                                      !- X Origin {m}
  0,                                      !- Y Origin {m}
  0,                                      !- Z Origin {m}
  ,                                       !- Building Story Name
  {4fb96f5b-0eb2-4c1a-af73-7d7d155bab5b}, !- Thermal Zone Name
  ,                                       !- Part of Total Floor Area
  ,                                       !- Design Specification Outdoor Air Object Name
  {32647b86-51f0-4f6b-b30c-361d347338f9}; !- Building Unit Name

OS:Surface,
  {faed1a1f-d819-4e52-aca7-bcc640a0398b}, !- Handle
  Surface 7,                              !- Name
  Floor,                                  !- Surface Type
  ,                                       !- Construction Name
  {2cb5f3a9-5f76-4607-8693-9f07aa3df550}, !- Space Name
  Ground,                                 !- Outside Boundary Condition
  ,                                       !- Outside Boundary Condition Object
  NoSun,                                  !- Sun Exposure
  NoWind,                                 !- Wind Exposure
  ,                                       !- View Factor to Ground
  ,                                       !- Number of Vertices
  0, 0, 0,                                !- X,Y,Z Vertex 1 {m}
  0, 10.1090723610033, 0,                 !- X,Y,Z Vertex 2 {m}
  20.2181447220065, 10.1090723610033, 0,  !- X,Y,Z Vertex 3 {m}
  20.2181447220065, 3.048, 0,             !- X,Y,Z Vertex 4 {m}
  14.1221447220065, 3.048, 0,             !- X,Y,Z Vertex 5 {m}
  14.1221447220065, 0, 0;                 !- X,Y,Z Vertex 6 {m}

OS:Surface,
  {457679eb-0b9a-4469-a0f6-0f44058d3fa2}, !- Handle
  Surface 8,                              !- Name
  Wall,                                   !- Surface Type
  ,                                       !- Construction Name
  {2cb5f3a9-5f76-4607-8693-9f07aa3df550}, !- Space Name
  Outdoors,                               !- Outside Boundary Condition
  ,                                       !- Outside Boundary Condition Object
  SunExposed,                             !- Sun Exposure
  WindExposed,                            !- Wind Exposure
  ,                                       !- View Factor to Ground
  ,                                       !- Number of Vertices
  0, 10.1090723610033, 2.4384,            !- X,Y,Z Vertex 1 {m}
  0, 10.1090723610033, 0,                 !- X,Y,Z Vertex 2 {m}
  0, 0, 0,                                !- X,Y,Z Vertex 3 {m}
  0, 0, 2.4384;                           !- X,Y,Z Vertex 4 {m}

OS:Surface,
  {8bfd631f-355a-49c9-a274-a7ebe43a0f22}, !- Handle
  Surface 9,                              !- Name
  Wall,                                   !- Surface Type
  ,                                       !- Construction Name
  {2cb5f3a9-5f76-4607-8693-9f07aa3df550}, !- Space Name
  Outdoors,                               !- Outside Boundary Condition
  ,                                       !- Outside Boundary Condition Object
  SunExposed,                             !- Sun Exposure
  WindExposed,                            !- Wind Exposure
  ,                                       !- View Factor to Ground
  ,                                       !- Number of Vertices
  20.2181447220065, 10.1090723610033, 2.4384, !- X,Y,Z Vertex 1 {m}
  20.2181447220065, 10.1090723610033, 0,  !- X,Y,Z Vertex 2 {m}
  0, 10.1090723610033, 0,                 !- X,Y,Z Vertex 3 {m}
  0, 10.1090723610033, 2.4384;            !- X,Y,Z Vertex 4 {m}

OS:Surface,
  {516a835e-d37c-416a-8b26-1906a2342e3d}, !- Handle
  Surface 10,                             !- Name
  Wall,                                   !- Surface Type
  ,                                       !- Construction Name
  {2cb5f3a9-5f76-4607-8693-9f07aa3df550}, !- Space Name
  Outdoors,                               !- Outside Boundary Condition
  ,                                       !- Outside Boundary Condition Object
  SunExposed,                             !- Sun Exposure
  WindExposed,                            !- Wind Exposure
  ,                                       !- View Factor to Ground
  ,                                       !- Number of Vertices
  20.2181447220065, 3.048, 2.4384,        !- X,Y,Z Vertex 1 {m}
  20.2181447220065, 3.048, 0,             !- X,Y,Z Vertex 2 {m}
  20.2181447220065, 10.1090723610033, 0,  !- X,Y,Z Vertex 3 {m}
  20.2181447220065, 10.1090723610033, 2.4384; !- X,Y,Z Vertex 4 {m}

OS:Surface,
  {a2c28ab1-59c3-4185-8804-9ec26c06531b}, !- Handle
  Surface 11,                             !- Name
  Wall,                                   !- Surface Type
  ,                                       !- Construction Name
  {2cb5f3a9-5f76-4607-8693-9f07aa3df550}, !- Space Name
  Surface,                                !- Outside Boundary Condition
  {624ab3b0-89fc-4c74-8087-87a4575c81d7}, !- Outside Boundary Condition Object
  NoSun,                                  !- Sun Exposure
  NoWind,                                 !- Wind Exposure
  ,                                       !- View Factor to Ground
  ,                                       !- Number of Vertices
  14.1221447220065, 3.048, 2.4384,        !- X,Y,Z Vertex 1 {m}
  14.1221447220065, 3.048, 0,             !- X,Y,Z Vertex 2 {m}
  20.2181447220065, 3.048, 0,             !- X,Y,Z Vertex 3 {m}
  20.2181447220065, 3.048, 2.4384;        !- X,Y,Z Vertex 4 {m}

OS:Surface,
  {c6f459f1-ead2-4dcc-8034-d59de61e4c83}, !- Handle
  Surface 12,                             !- Name
  Wall,                                   !- Surface Type
  ,                                       !- Construction Name
  {2cb5f3a9-5f76-4607-8693-9f07aa3df550}, !- Space Name
  Surface,                                !- Outside Boundary Condition
  {7a4fe653-776d-46f2-ae73-fa962830e18a}, !- Outside Boundary Condition Object
  NoSun,                                  !- Sun Exposure
  NoWind,                                 !- Wind Exposure
  ,                                       !- View Factor to Ground
  ,                                       !- Number of Vertices
  14.1221447220065, 0, 2.4384,            !- X,Y,Z Vertex 1 {m}
  14.1221447220065, 0, 0,                 !- X,Y,Z Vertex 2 {m}
  14.1221447220065, 3.048, 0,             !- X,Y,Z Vertex 3 {m}
  14.1221447220065, 3.048, 2.4384;        !- X,Y,Z Vertex 4 {m}

OS:Surface,
  {f4037420-6cd2-4044-8b9a-86e87a58a087}, !- Handle
  Surface 13,                             !- Name
  Wall,                                   !- Surface Type
  ,                                       !- Construction Name
  {2cb5f3a9-5f76-4607-8693-9f07aa3df550}, !- Space Name
  Outdoors,                               !- Outside Boundary Condition
  ,                                       !- Outside Boundary Condition Object
  SunExposed,                             !- Sun Exposure
  WindExposed,                            !- Wind Exposure
  ,                                       !- View Factor to Ground
  ,                                       !- Number of Vertices
  0, 0, 2.4384,                           !- X,Y,Z Vertex 1 {m}
  0, 0, 0,                                !- X,Y,Z Vertex 2 {m}
  14.1221447220065, 0, 0,                 !- X,Y,Z Vertex 3 {m}
  14.1221447220065, 0, 2.4384;            !- X,Y,Z Vertex 4 {m}

OS:Surface,
  {cb1501fd-4d9e-46ce-99c5-afe56e960e4e}, !- Handle
  Surface 14,                             !- Name
  RoofCeiling,                            !- Surface Type
  ,                                       !- Construction Name
  {2cb5f3a9-5f76-4607-8693-9f07aa3df550}, !- Space Name
  Outdoors,                               !- Outside Boundary Condition
  ,                                       !- Outside Boundary Condition Object
  SunExposed,                             !- Sun Exposure
  WindExposed,                            !- Wind Exposure
  ,                                       !- View Factor to Ground
  ,                                       !- Number of Vertices
  14.1221447220065, 0, 2.4384,            !- X,Y,Z Vertex 1 {m}
  14.1221447220065, 3.048, 2.4384,        !- X,Y,Z Vertex 2 {m}
  20.2181447220065, 3.048, 2.4384,        !- X,Y,Z Vertex 3 {m}
  20.2181447220065, 10.1090723610033, 2.4384, !- X,Y,Z Vertex 4 {m}
  0, 10.1090723610033, 2.4384,            !- X,Y,Z Vertex 5 {m}