!- NOTE: Auto-generated from /test/osw_files/SFD_2000sqft_2story_SL_GRGLeft_FlatRoof.osw

OS:Version,
  {7c564cce-d9a7-4606-9f9c-2573b2a37d24}, !- Handle
  2.2.1;                                  !- Version Identifier

OS:Building,
  {bf305633-c5a1-4881-9edf-ca5e1a8e1274}, !- Handle
  Building,                               !- Name
  ,                                       !- Building Sector Type
  ,                                       !- North Axis {deg}
  ,                                       !- Nominal Floor to Floor Height {m}
  ,                                       !- Space Type Name
  ,                                       !- Default Construction Set Name
  ,                                       !- Default Schedule Set Name
  2,                                      !- Standards Number of Stories
  2,                                      !- Standards Number of Above Ground Stories
  singlefamilydetached,                   !- Standards Building Type
  1;                                      !- Standards Number of Living Units

OS:YearDescription,
  {513d8dda-86cb-442a-b01c-1f7f0e0ac70e}; !- Handle

OS:SimulationControl,
  {2c487a4c-bac9-4ac5-b669-1e49d9da7c2b}, !- Handle
  ,                                       !- Do Zone Sizing Calculation
  ,                                       !- Do System Sizing Calculation
  ,                                       !- Do Plant Sizing Calculation
  No,                                     !- Run Simulation for Sizing Periods
  ;                                       !- Run Simulation for Weather File Run Periods

OS:Timestep,
  {4ebc9f1e-4707-402e-9844-67eb1ffbd522}, !- Handle
  6;                                      !- Number of Timesteps per Hour

OS:RunPeriod,
  {28df894d-6af9-4fb8-8f56-df1753344aa3}, !- Handle
  Run Period,                             !- Name
  1,                                      !- Begin Month
  1,                                      !- Begin Day of Month
  12,                                     !- End Month
  31,                                     !- End Day of Month
  ,                                       !- Use Weather File Holidays and Special Days
  ,                                       !- Use Weather File Daylight Saving Period
  ,                                       !- Apply Weekend Holiday Rule
  ,                                       !- Use Weather File Rain Indicators
  ,                                       !- Use Weather File Snow Indicators
  ;                                       !- Number of Times Runperiod to be Repeated

OS:Sizing:Parameters,
  {dde5af6f-7923-4600-a28a-7556673a0266}, !- Handle
  1.0,                                    !- Heating Sizing Factor
  1.0;                                    !- Cooling Sizing Factor

OS:ShadowCalculation,
  {ca758bea-4416-4626-9bba-3d8795c79bd6}, !- Handle
  20,                                     !- Calculation Frequency
  200;                                    !- Maximum Figures in Shadow Overlap Calculations

OS:SurfaceConvectionAlgorithm:Inside,
  {aaabfc36-718a-4ab0-b622-f186ebb45230}, !- Handle
  TARP;                                   !- Algorithm

OS:SurfaceConvectionAlgorithm:Outside,
  {9a0a9f6f-4bbd-4b12-a121-9492a1fcd7d6}, !- Handle
  DOE-2;                                  !- Algorithm

OS:HeatBalanceAlgorithm,
  {9d93e563-e1e0-46d7-9e39-d1c8aceb7212}, !- Handle
  ConductionTransferFunction,             !- Algorithm
  200;                                    !- Surface Temperature Upper Limit {C}

OS:ZoneCapacitanceMultiplier:ResearchSpecial,
  {6bfced16-b16f-47f6-8223-f7e267d75d19}, !- Handle
  ,                                       !- Temperature Capacity Multiplier
  15,                                     !- Humidity Capacity Multiplier
  ;                                       !- Carbon Dioxide Capacity Multiplier

OS:ThermalZone,
  {e7495f8f-d7c0-4ac9-9500-69a915aabc02}, !- Handle
  living zone,                            !- Name
  ,                                       !- Multiplier
  ,                                       !- Ceiling Height {m}
  ,                                       !- Volume {m3}
  ,                                       !- Floor Area {m2}
  ,                                       !- Zone Inside Convection Algorithm
  ,                                       !- Zone Outside Convection Algorithm
  ,                                       !- Zone Conditioning Equipment List Name
  {95cbe11d-eefb-4d8a-8022-e9048e827b96}, !- Zone Air Inlet Port List
  {6884baa9-c611-4525-b47d-33260ffeda14}, !- Zone Air Exhaust Port List
  {be44a1c1-d3c0-499b-aca3-f0d5ba0766bf}, !- Zone Air Node Name
  ,                                       !- Zone Return Air Node Name
  ,                                       !- Primary Daylighting Control Name
  ,                                       !- Fraction of Zone Controlled by Primary Daylighting Control
  ,                                       !- Secondary Daylighting Control Name
  ,                                       !- Fraction of Zone Controlled by Secondary Daylighting Control
  ,                                       !- Illuminance Map Name
  ,                                       !- Group Rendering Name
  ,                                       !- Thermostat Name
  No;                                     !- Use Ideal Air Loads

OS:Node,
  {7979dcfb-a9a9-4199-bce8-2543904e516f}, !- Handle
  Node 1,                                 !- Name
  {be44a1c1-d3c0-499b-aca3-f0d5ba0766bf}, !- Inlet Port
  ;                                       !- Outlet Port

OS:Connection,
  {be44a1c1-d3c0-499b-aca3-f0d5ba0766bf}, !- Handle
  {3e3b289f-5767-44d4-a2ea-b9aa6642c8fd}, !- Name
  {e7495f8f-d7c0-4ac9-9500-69a915aabc02}, !- Source Object
  11,                                     !- Outlet Port
  {7979dcfb-a9a9-4199-bce8-2543904e516f}, !- Target Object
  2;                                      !- Inlet Port

OS:PortList,
  {95cbe11d-eefb-4d8a-8022-e9048e827b96}, !- Handle
  {4f941f06-0433-4786-a8b1-cfa108afedd9}, !- Name
  {e7495f8f-d7c0-4ac9-9500-69a915aabc02}; !- HVAC Component

OS:PortList,
  {6884baa9-c611-4525-b47d-33260ffeda14}, !- Handle
  {71658f39-0b2b-4036-8db5-470ccfc6f9a1}, !- Name
  {e7495f8f-d7c0-4ac9-9500-69a915aabc02}; !- HVAC Component

OS:Sizing:Zone,
  {55ea5777-7673-4eb7-ae80-4a7a1f45a6a7}, !- Handle
  {e7495f8f-d7c0-4ac9-9500-69a915aabc02}, !- Zone or ZoneList Name
  SupplyAirTemperature,                   !- Zone Cooling Design Supply Air Temperature Input Method
  14,                                     !- Zone Cooling Design Supply Air Temperature {C}
  11.11,                                  !- Zone Cooling Design Supply Air Temperature Difference {deltaC}
  SupplyAirTemperature,                   !- Zone Heating Design Supply Air Temperature Input Method
  40,                                     !- Zone Heating Design Supply Air Temperature {C}
  11.11,                                  !- Zone Heating Design Supply Air Temperature Difference {deltaC}
  0.0085,                                 !- Zone Cooling Design Supply Air Humidity Ratio {kg-H2O/kg-air}
  0.008,                                  !- Zone Heating Design Supply Air Humidity Ratio {kg-H2O/kg-air}
  ,                                       !- Zone Heating Sizing Factor
  ,                                       !- Zone Cooling Sizing Factor
  DesignDay,                              !- Cooling Design Air Flow Method
  ,                                       !- Cooling Design Air Flow Rate {m3/s}
  ,                                       !- Cooling Minimum Air Flow per Zone Floor Area {m3/s-m2}
  ,                                       !- Cooling Minimum Air Flow {m3/s}
  ,                                       !- Cooling Minimum Air Flow Fraction
  DesignDay,                              !- Heating Design Air Flow Method
  ,                                       !- Heating Design Air Flow Rate {m3/s}
  ,                                       !- Heating Maximum Air Flow per Zone Floor Area {m3/s-m2}
  ,                                       !- Heating Maximum Air Flow {m3/s}
  ,                                       !- Heating Maximum Air Flow Fraction
  ,                                       !- Design Zone Air Distribution Effectiveness in Cooling Mode
  ,                                       !- Design Zone Air Distribution Effectiveness in Heating Mode
  No,                                     !- Account for Dedicated Outdoor Air System
  NeutralSupplyAir,                       !- Dedicated Outdoor Air System Control Strategy
  autosize,                               !- Dedicated Outdoor Air Low Setpoint Temperature for Design {C}
  autosize;                               !- Dedicated Outdoor Air High Setpoint Temperature for Design {C}

OS:ZoneHVAC:EquipmentList,
  {0766e0e4-adb7-40b6-a361-ed173146fdd0}, !- Handle
  Zone HVAC Equipment List 1,             !- Name
  {e7495f8f-d7c0-4ac9-9500-69a915aabc02}; !- Thermal Zone

OS:ThermalZone,
  {6c078087-cd4e-40d1-abef-20e2061e576f}, !- Handle
  garage zone,                            !- Name
  ,                                       !- Multiplier
  ,                                       !- Ceiling Height {m}
  ,                                       !- Volume {m3}
  ,                                       !- Floor Area {m2}
  ,                                       !- Zone Inside Convection Algorithm
  ,                                       !- Zone Outside Convection Algorithm
  ,                                       !- Zone Conditioning Equipment List Name
  {f63eac65-d76f-496d-a986-57b72b8b9b4c}, !- Zone Air Inlet Port List
  {df89cd51-9c24-4293-92cb-2d8f69d8bc33}, !- Zone Air Exhaust Port List
  {4b43b72e-142b-4a6f-bec3-1860df839a76}, !- Zone Air Node Name
  ,                                       !- Zone Return Air Node Name
  ,                                       !- Primary Daylighting Control Name
  ,                                       !- Fraction of Zone Controlled by Primary Daylighting Control
  ,                                       !- Secondary Daylighting Control Name
  ,                                       !- Fraction of Zone Controlled by Secondary Daylighting Control
  ,                                       !- Illuminance Map Name
  ,                                       !- Group Rendering Name
  ,                                       !- Thermostat Name
  No;                                     !- Use Ideal Air Loads

OS:Node,
  {5df309c5-7b9a-40a2-9f56-5e35b54a2b5a}, !- Handle
  Node 2,                                 !- Name
  {4b43b72e-142b-4a6f-bec3-1860df839a76}, !- Inlet Port
  ;                                       !- Outlet Port

OS:Connection,
  {4b43b72e-142b-4a6f-bec3-1860df839a76}, !- Handle
  {27868312-d48e-4c09-a52d-6c6880b65ce2}, !- Name
  {6c078087-cd4e-40d1-abef-20e2061e576f}, !- Source Object
  11,                                     !- Outlet Port
  {5df309c5-7b9a-40a2-9f56-5e35b54a2b5a}, !- Target Object
  2;                                      !- Inlet Port

OS:PortList,
  {f63eac65-d76f-496d-a986-57b72b8b9b4c}, !- Handle
  {7dd97788-6bfb-428c-bbff-13ddebf8e655}, !- Name
  {6c078087-cd4e-40d1-abef-20e2061e576f}; !- HVAC Component

OS:PortList,
  {df89cd51-9c24-4293-92cb-2d8f69d8bc33}, !- Handle
  {c72002a2-b454-43fd-9c55-0434023a799f}, !- Name
  {6c078087-cd4e-40d1-abef-20e2061e576f}; !- HVAC Component

OS:Sizing:Zone,
  {c2c8a4f7-7fa0-4e90-b4a0-d2be451c61f6}, !- Handle
  {6c078087-cd4e-40d1-abef-20e2061e576f}, !- Zone or ZoneList Name
  SupplyAirTemperature,                   !- Zone Cooling Design Supply Air Temperature Input Method
  14,                                     !- Zone Cooling Design Supply Air Temperature {C}
  11.11,                                  !- Zone Cooling Design Supply Air Temperature Difference {deltaC}
  SupplyAirTemperature,                   !- Zone Heating Design Supply Air Temperature Input Method
  40,                                     !- Zone Heating Design Supply Air Temperature {C}
  11.11,                                  !- Zone Heating Design Supply Air Temperature Difference {deltaC}
  0.0085,                                 !- Zone Cooling Design Supply Air Humidity Ratio {kg-H2O/kg-air}
  0.008,                                  !- Zone Heating Design Supply Air Humidity Ratio {kg-H2O/kg-air}
  ,                                       !- Zone Heating Sizing Factor
  ,                                       !- Zone Cooling Sizing Factor
  DesignDay,                              !- Cooling Design Air Flow Method
  ,                                       !- Cooling Design Air Flow Rate {m3/s}
  ,                                       !- Cooling Minimum Air Flow per Zone Floor Area {m3/s-m2}
  ,                                       !- Cooling Minimum Air Flow {m3/s}
  ,                                       !- Cooling Minimum Air Flow Fraction
  DesignDay,                              !- Heating Design Air Flow Method
  ,                                       !- Heating Design Air Flow Rate {m3/s}
  ,                                       !- Heating Maximum Air Flow per Zone Floor Area {m3/s-m2}
  ,                                       !- Heating Maximum Air Flow {m3/s}
  ,                                       !- Heating Maximum Air Flow Fraction
  ,                                       !- Design Zone Air Distribution Effectiveness in Cooling Mode
  ,                                       !- Design Zone Air Distribution Effectiveness in Heating Mode
  No,                                     !- Account for Dedicated Outdoor Air System
  NeutralSupplyAir,                       !- Dedicated Outdoor Air System Control Strategy
  autosize,                               !- Dedicated Outdoor Air Low Setpoint Temperature for Design {C}
  autosize;                               !- Dedicated Outdoor Air High Setpoint Temperature for Design {C}

OS:ZoneHVAC:EquipmentList,
  {0a73fa07-e31a-45d5-a377-d1372fc71235}, !- Handle
  Zone HVAC Equipment List 2,             !- Name
  {6c078087-cd4e-40d1-abef-20e2061e576f}; !- Thermal Zone

OS:Space,
  {224d91db-1cc3-4c4d-bbdc-67a6656469e9}, !- Handle
  garage space,                           !- Name
  ,                                       !- Space Type Name
  ,                                       !- Default Construction Set Name
  ,                                       !- Default Schedule Set Name
  -0,                                     !- Direction of Relative North {deg}
  0,                                      !- X Origin {m}
  0,                                      !- Y Origin {m}
  0,                                      !- Z Origin {m}
  ,                                       !- Building Story Name
  {6c078087-cd4e-40d1-abef-20e2061e576f}, !- Thermal Zone Name
  ,                                       !- Part of Total Floor Area
  ,                                       !- Design Specification Outdoor Air Object Name
  {e07e6b3c-f3a3-4e6f-baec-1030e4ef0074}; !- Building Unit Name

OS:Surface,
  {2597a5d9-6c2e-4dc8-99c9-007701f85124}, !- Handle
  Surface 1,                              !- Name
  Floor,                                  !- Surface Type
  ,                                       !- Construction Name
  {224d91db-1cc3-4c4d-bbdc-67a6656469e9}, !- Space Name
  Ground,                                 !- Outside Boundary Condition
  ,                                       !- Outside Boundary Condition Object
  NoSun,                                  !- Sun Exposure
  NoWind,                                 !- Wind Exposure
  ,                                       !- View Factor to Ground
  ,                                       !- Number of Vertices
  0, -3.048, 0,                           !- X,Y,Z Vertex 1 {m}
  0, 3.048, 0,                            !- X,Y,Z Vertex 2 {m}
  6.096, 3.048, 0,                        !- X,Y,Z Vertex 3 {m}
  6.096, -3.048, 0;                       !- X,Y,Z Vertex 4 {m}

OS:Surface,
  {d89bb3e2-2ec9-4be1-a9fa-c090a88e6ba5}, !- Handle
  Surface 2,                              !- Name
  Wall,                                   !- Surface Type
  ,                                       !- Construction Name
  {224d91db-1cc3-4c4d-bbdc-67a6656469e9}, !- Space Name
  Outdoors,                               !- Outside Boundary Condition
  ,                                       !- Outside Boundary Condition Object
  SunExposed,                             !- Sun Exposure
  WindExposed,                            !- Wind Exposure
  ,                                       !- View Factor to Ground
  ,                                       !- Number of Vertices
  0, 3.048, 2.4384,                       !- X,Y,Z Vertex 1 {m}
  0, 3.048, 0,                            !- X,Y,Z Vertex 2 {m}
  0, -3.048, 0,                           !- X,Y,Z Vertex 3 {m}
  0, -3.048, 2.4384;                      !- X,Y,Z Vertex 4 {m}

OS:Surface,
  {23b77112-030f-4263-9c3a-fd6168ff1ef3}, !- Handle
  Surface 3,                              !- Name
  Wall,                                   !- Surface Type
  ,                                       !- Construction Name
  {224d91db-1cc3-4c4d-bbdc-67a6656469e9}, !- Space Name
  Surface,                                !- Outside Boundary Condition
  {d2390159-7417-4154-8385-8a3887a0e9ea}, !- Outside Boundary Condition Object
  NoSun,                                  !- Sun Exposure
  NoWind,                                 !- Wind Exposure
  ,                                       !- View Factor to Ground
  ,                                       !- Number of Vertices
  6.096, 3.048, 2.4384,                   !- X,Y,Z Vertex 1 {m}
  6.096, 3.048, 0,                        !- X,Y,Z Vertex 2 {m}
  0, 3.048, 0,                            !- X,Y,Z Vertex 3 {m}
  0, 3.048, 2.4384;                       !- X,Y,Z Vertex 4 {m}

OS:Surface,
  {6a3c3564-1c76-4d16-8007-3a8daeba7594}, !- Handle
  Surface 4,                              !- Name
  Wall,                                   !- Surface Type
  ,                                       !- Construction Name
  {224d91db-1cc3-4c4d-bbdc-67a6656469e9}, !- Space Name
  Surface,                                !- Outside Boundary Condition
  {0cb84d91-27df-465f-8059-d0365f293236}, !- Outside Boundary Condition Object
  NoSun,                                  !- Sun Exposure
  NoWind,                                 !- Wind Exposure
  ,                                       !- View Factor to Ground
  ,                                       !- Number of Vertices
  6.096, 0, 2.4384,                       !- X,Y,Z Vertex 1 {m}
  6.096, 0, 0,                            !- X,Y,Z Vertex 2 {m}
  6.096, 3.048, 0,                        !- X,Y,Z Vertex 3 {m}
  6.096, 3.048, 2.4384;                   !- X,Y,Z Vertex 4 {m}

OS:Surface,
  {e0110e1e-dccb-4c43-896b-9bbeaef474df}, !- Handle
  Surface 5,                              !- Name
  Wall,                                   !- Surface Type
  ,                                       !- Construction Name
  {224d91db-1cc3-4c4d-bbdc-67a6656469e9}, !- Space Name
  Outdoors,                               !- Outside Boundary Condition
  ,                                       !- Outside Boundary Condition Object
  SunExposed,                             !- Sun Exposure
  WindExposed,                            !- Wind Exposure
  ,                                       !- View Factor to Ground
  ,                                       !- Number of Vertices
  0, -3.048, 2.4384,                      !- X,Y,Z Vertex 1 {m}
  0, -3.048, 0,                           !- X,Y,Z Vertex 2 {m}
  6.096, -3.048, 0,                       !- X,Y,Z Vertex 3 {m}
  6.096, -3.048, 2.4384;                  !- X,Y,Z Vertex 4 {m}

OS:Surface,
  {4f2e90e5-c657-4894-8590-30cda803efb2}, !- Handle
  Surface 6,                              !- Name
  RoofCeiling,                            !- Surface Type
  ,                                       !- Construction Name
  {224d91db-1cc3-4c4d-bbdc-67a6656469e9}, !- Space Name
  Surface,                                !- Outside Boundary Condition
  {de011cef-d664-4269-aee3-ac8abba9bbec}, !- Outside Boundary Condition Object
  NoSun,                                  !- Sun Exposure
  NoWind,                                 !- Wind Exposure
  ,                                       !- View Factor to Ground
  ,                                       !- Number of Vertices
  6.096, -3.048, 2.4384,                  !- X,Y,Z Vertex 1 {m}
  6.096, 3.048, 2.4384,                   !- X,Y,Z Vertex 2 {m}
  0, 3.048, 2.4384,                       !- X,Y,Z Vertex 3 {m}
  0, -3.048, 2.4384;                      !- X,Y,Z Vertex 4 {m}

OS:Space,
  {23e5572f-80ff-4b99-8967-23ad04b75fac}, !- Handle
  living space,                           !- Name
  ,                                       !- Space Type Name
  ,                                       !- Default Construction Set Name
  ,                                       !- Default Schedule Set Name
  -0,                                     !- Direction of Relative North {deg}
  0,                                      !- X Origin {m}
  0,                                      !- Y Origin {m}
  0,                                      !- Z Origin {m}
  ,                                       !- Building Story Name
  {e7495f8f-d7c0-4ac9-9500-69a915aabc02}, !- Thermal Zone Name
  ,                                       !- Part of Total Floor Area
  ,                                       !- Design Specification Outdoor Air Object Name
  {e07e6b3c-f3a3-4e6f-baec-1030e4ef0074}; !- Building Unit Name

OS:Surface,
  {3a24911d-e1ad-4276-ad25-d49108311700}, !- Handle
  Surface 7,                              !- Name
  Floor,                                  !- Surface Type
  ,                                       !- Construction Name
  {23e5572f-80ff-4b99-8967-23ad04b75fac}, !- Space Name
  Ground,                                 !- Outside Boundary Condition
  ,                                       !- Outside Boundary Condition Object
  NoSun,                                  !- Sun Exposure
  NoWind,                                 !- Wind Exposure
  ,                                       !- View Factor to Ground
  ,                                       !- Number of Vertices
  0, 3.048, 0,                            !- X,Y,Z Vertex 1 {m}
  0, 6.81553519541936, 0,                 !- X,Y,Z Vertex 2 {m}
  13.6310703908387, 6.81553519541936, 0,  !- X,Y,Z Vertex 3 {m}
  13.6310703908387, 0, 0,                 !- X,Y,Z Vertex 4 {m}
  6.096, 0, 0,                            !- X,Y,Z Vertex 5 {m}
  6.096, 3.048, 0;                        !- X,Y,Z Vertex 6 {m}

OS:Surface,
  {e1e3f502-cc55-4fba-a43b-ad3a6766d814}, !- Handle
  Surface 8,                              !- Name
  Wall,                                   !- Surface Type
  ,                                       !- Construction Name
  {23e5572f-80ff-4b99-8967-23ad04b75fac}, !- Space Name
  Outdoors,                               !- Outside Boundary Condition
  ,                                       !- Outside Boundary Condition Object
  SunExposed,                             !- Sun Exposure
  WindExposed,                            !- Wind Exposure
  ,                                       !- View Factor to Ground
  ,                                       !- Number of Vertices
  0, 6.81553519541936, 2.4384,            !- X,Y,Z Vertex 1 {m}
  0, 6.81553519541936, 0,                 !- X,Y,Z Vertex 2 {m}
  0, 3.048, 0,                            !- X,Y,Z Vertex 3 {m}
  0, 3.048, 2.4384;                       !- X,Y,Z Vertex 4 {m}

OS:Surface,
  {4c893f7d-c1e4-4be5-97f2-75b19018f0db}, !- Handle
  Surface 9,                              !- Name
  Wall,                                   !- Surface Type
  ,                                       !- Construction Name
  {23e5572f-80ff-4b99-8967-23ad04b75fac}, !- Space Name
  Outdoors,                               !- Outside Boundary Condition
  ,                                       !- Outside Boundary Condition Object
  SunExposed,                             !- Sun Exposure
  WindExposed,                            !- Wind Exposure
  ,                                       !- View Factor to Ground
  ,                                       !- Number of Vertices
  13.6310703908387, 6.81553519541936, 2.4384, !- X,Y,Z Vertex 1 {m}
  13.6310703908387, 6.81553519541936, 0,  !- X,Y,Z Vertex 2 {m}
  0, 6.81553519541936, 0,                 !- X,Y,Z Vertex 3 {m}
  0, 6.81553519541936, 2.4384;            !- X,Y,Z Vertex 4 {m}

OS:Surface,
  {247daa7e-6bba-47c6-ac7e-8bbb055dcdb3}, !- Handle
  Surface 10,                             !- Name
  Wall,                                   !- Surface Type
  ,                                       !- Construction Name
  {23e5572f-80ff-4b99-8967-23ad04b75fac}, !- Space Name
  Outdoors,                               !- Outside Boundary Condition
  ,                                       !- Outside Boundary Condition Object
  SunExposed,                             !- Sun Exposure
  WindExposed,                            !- Wind Exposure
  ,                                       !- View Factor to Ground
  ,                                       !- Number of Vertices
  13.6310703908387, 0, 2.4384,            !- X,Y,Z Vertex 1 {m}
  13.6310703908387, 0, 0,                 !- X,Y,Z Vertex 2 {m}
  13.6310703908387, 6.81553519541936, 0,  !- X,Y,Z Vertex 3 {m}
  13.6310703908387, 6.81553519541936, 2.4384; !- X,Y,Z Vertex 4 {m}

OS:Surface,
  {0eab6912-45ef-4dcf-bea9-94f9589fbd3f}, !- Handle
  Surface 11,                             !- Name
  Wall,                                   !- Surface Type
  ,                                       !- Construction Name
  {23e5572f-80ff-4b99-8967-23ad04b75fac}, !- Space Name
  Outdoors,                               !- Outside Boundary Condition
  ,                                       !- Outside Boundary Condition Object
  SunExposed,                             !- Sun Exposure
  WindExposed,                            !- Wind Exposure
  ,                                       !- View Factor to Ground
  ,                                       !- Number of Vertices
  6.096, 0, 2.4384,                       !- X,Y,Z Vertex 1 {m}
  6.096, 0, 0,                            !- X,Y,Z Vertex 2 {m}
  13.6310703908387, 0, 0,                 !- X,Y,Z Vertex 3 {m}
  13.6310703908387, 0, 2.4384;            !- X,Y,Z Vertex 4 {m}

OS:Surface,
  {0cb84d91-27df-465f-8059-d0365f293236}, !- Handle
  Surface 12,                             !- Name
  Wall,                                   !- Surface Type
  ,                                       !- Construction Name
  {23e5572f-80ff-4b99-8967-23ad04b75fac}, !- Space Name
  Surface,                                !- Outside Boundary Condition
  {6a3c3564-1c76-4d16-8007-3a8daeba7594}, !- Outside Boundary Condition Object
  NoSun,                                  !- Sun Exposure
  NoWind,                                 !- Wind Exposure
  ,                                       !- View Factor to Ground
  ,                                       !- Number of Vertices
  6.096, 3.048, 2.4384,                   !- X,Y,Z Vertex 1 {m}
  6.096, 3.048, 0,                        !- X,Y,Z Vertex 2 {m}
  6.096, 0, 0,                            !- X,Y,Z Vertex 3 {m}
  6.096, 0, 2.4384;                       !- X,Y,Z Vertex 4 {m}

OS:Surface,
  {d2390159-7417-4154-8385-8a3887a0e9ea}, !- Handle
  Surface 13,                             !- Name
  Wall,                                   !- Surface Type
  ,                                       !- Construction Name
  {23e5572f-80ff-4b99-8967-23ad04b75fac}, !- Space Name
  Surface,                                !- Outside Boundary Condition
  {23b77112-030f-4263-9c3a-fd6168ff1ef3}, !- Outside Boundary Condition Object
  NoSun,                                  !- Sun Exposure
  NoWind,                                 !- Wind Exposure
  ,                                       !- View Factor to Ground
  ,                                       !- Number of Vertices
  0, 3.048, 2.4384,                       !- X,Y,Z Vertex 1 {m}
  0, 3.048, 0,                            !- X,Y,Z Vertex 2 {m}
  6.096, 3.048, 0,                        !- X,Y,Z Vertex 3 {m}
  6.096, 3.048, 2.4384;                   !- X,Y,Z Vertex 4 {m}

OS:Surface,
  {83040f56-335a-48fc-b66b-a5ba62ea5315}, !- Handle
  Surface 14,                             !- Name
  RoofCeiling,                            !- Surface Type
  ,                                       !- Construction Name
  {23e5572f-80ff-4b99-8967-23ad04b75fac}, !- Space Name
  Surface,                                !- Outside Boundary Condition
  {8cbe073c-d401-4576-af8f-2bebe267785b}, !- Outside Boundary Condition Object
  NoSun,                                  !- Sun Exposure
  NoWind,                                 !- Wind Exposure
  ,                                       !- View Factor to Ground
  ,                                       !- Number of Vertices
  6.096, 3.048, 2.4384,                   !- X,Y,Z Vertex 1 {m}
  6.096, 0, 2.4384,                       !- X,Y,Z Vertex 2 {m}
  13.6310703908387, 0, 2.4384,            !- X,Y,Z Vertex 3 {m}
  13.6310703908387, 6.81553519541936, 2.4384, !- X,Y,Z Vertex 4 {m}
  0, 6.81553519541936, 2.4384,            !- X,Y,Z Vertex 5 {m}
  0, 3.048, 2.4384;                       !- X,Y,Z Vertex 6 {m}

OS:Space,
  {d305f844-9a0a-4727-8eb4-a5b2d7b2e7f0}, !- Handle
  living space|story 2,                   !- Name
  ,                                       !- Space Type Name
  ,                                       !- Default Construction Set Name
  ,                                       !- Default Schedule Set Name
  -0,                                     !- Direction of Relative North {deg}
  0,                                      !- X Origin {m}