!- NOTE: Auto-generated from /test/osw_files/SFD_2000sqft_1story_SL_GRG_FlatRoof.osw

OS:Version,
  {6a131772-1fe7-42b6-b087-5803f5a4be83}, !- Handle
  2.3.1;                                  !- Version Identifier

OS:Building,
  {bf305633-c5a1-4881-9edf-ca5e1a8e1274}, !- Handle
  Building,                               !- Name
  ,                                       !- Building Sector Type
  ,                                       !- North Axis {deg}
  ,                                       !- Nominal Floor to Floor Height {m}
  ,                                       !- Space Type Name
  ,                                       !- Default Construction Set Name
  ,                                       !- Default Schedule Set Name
  1,                                      !- Standards Number of Stories
  1,                                      !- Standards Number of Above Ground Stories
  singlefamilydetached,                   !- Standards Building Type
  1;                                      !- Standards Number of Living Units

OS:YearDescription,
  {513d8dda-86cb-442a-b01c-1f7f0e0ac70e}; !- Handle

OS:SimulationControl,
  {2c487a4c-bac9-4ac5-b669-1e49d9da7c2b}, !- Handle
  ,                                       !- Do Zone Sizing Calculation
  ,                                       !- Do System Sizing Calculation
  ,                                       !- Do Plant Sizing Calculation
  No,                                     !- Run Simulation for Sizing Periods
  ;                                       !- Run Simulation for Weather File Run Periods

OS:Timestep,
  {4ebc9f1e-4707-402e-9844-67eb1ffbd522}, !- Handle
  6;                                      !- Number of Timesteps per Hour

OS:RunPeriod,
  {28df894d-6af9-4fb8-8f56-df1753344aa3}, !- Handle
  Run Period,                             !- Name
  1,                                      !- Begin Month
  1,                                      !- Begin Day of Month
  12,                                     !- End Month
  31,                                     !- End Day of Month
  ,                                       !- Use Weather File Holidays and Special Days
  ,                                       !- Use Weather File Daylight Saving Period
  ,                                       !- Apply Weekend Holiday Rule
  ,                                       !- Use Weather File Rain Indicators
  ,                                       !- Use Weather File Snow Indicators
  ;                                       !- Number of Times Runperiod to be Repeated

OS:Sizing:Parameters,
  {dde5af6f-7923-4600-a28a-7556673a0266}, !- Handle
  1.0,                                    !- Heating Sizing Factor
  1.0;                                    !- Cooling Sizing Factor

OS:ShadowCalculation,
  {ca758bea-4416-4626-9bba-3d8795c79bd6}, !- Handle
  20,                                     !- Calculation Frequency
  200;                                    !- Maximum Figures in Shadow Overlap Calculations

OS:SurfaceConvectionAlgorithm:Inside,
  {aaabfc36-718a-4ab0-b622-f186ebb45230}, !- Handle
  TARP;                                   !- Algorithm

OS:SurfaceConvectionAlgorithm:Outside,
  {9a0a9f6f-4bbd-4b12-a121-9492a1fcd7d6}, !- Handle
  DOE-2;                                  !- Algorithm

OS:HeatBalanceAlgorithm,
  {9d93e563-e1e0-46d7-9e39-d1c8aceb7212}, !- Handle
  ConductionTransferFunction,             !- Algorithm
  200;                                    !- Surface Temperature Upper Limit {C}

OS:ZoneCapacitanceMultiplier:ResearchSpecial,
  {6bfced16-b16f-47f6-8223-f7e267d75d19}, !- Handle
  ,                                       !- Temperature Capacity Multiplier
  15,                                     !- Humidity Capacity Multiplier
  ;                                       !- Carbon Dioxide Capacity Multiplier

OS:ThermalZone,
  {23988995-ab11-400e-8c86-ff6d8d2ccdff}, !- Handle
  living zone,                            !- Name
  ,                                       !- Multiplier
  ,                                       !- Ceiling Height {m}
  ,                                       !- Volume {m3}
  ,                                       !- Floor Area {m2}
  ,                                       !- Zone Inside Convection Algorithm
  ,                                       !- Zone Outside Convection Algorithm
  ,                                       !- Zone Conditioning Equipment List Name
  {032a61a6-d83a-4d96-9928-5a5cb1c3f575}, !- Zone Air Inlet Port List
  {3ad97829-e4ab-4b6a-9e5f-505de59b7cf4}, !- Zone Air Exhaust Port List
  {54233e40-e080-4a40-b9ab-4acb411a96ac}, !- Zone Air Node Name
  ,                                       !- Zone Return Air Node Name
  ,                                       !- Primary Daylighting Control Name
  ,                                       !- Fraction of Zone Controlled by Primary Daylighting Control
  ,                                       !- Secondary Daylighting Control Name
  ,                                       !- Fraction of Zone Controlled by Secondary Daylighting Control
  ,                                       !- Illuminance Map Name
  ,                                       !- Group Rendering Name
  ,                                       !- Thermostat Name
  No;                                     !- Use Ideal Air Loads

OS:Node,
  {c15c4d42-2ca7-444b-b0d6-1e4663216fa8}, !- Handle
  Node 1,                                 !- Name
  {54233e40-e080-4a40-b9ab-4acb411a96ac}, !- Inlet Port
  ;                                       !- Outlet Port

OS:Connection,
  {54233e40-e080-4a40-b9ab-4acb411a96ac}, !- Handle
  {ba7883a7-9e4f-49b4-b78e-caa905f1f2fc}, !- Name
  {23988995-ab11-400e-8c86-ff6d8d2ccdff}, !- Source Object
  11,                                     !- Outlet Port
  {c15c4d42-2ca7-444b-b0d6-1e4663216fa8}, !- Target Object
  2;                                      !- Inlet Port

OS:PortList,
  {032a61a6-d83a-4d96-9928-5a5cb1c3f575}, !- Handle
  {8c30fbb5-476c-40cd-9ec3-ce00b30ef32b}, !- Name
  {23988995-ab11-400e-8c86-ff6d8d2ccdff}; !- HVAC Component

OS:PortList,
  {3ad97829-e4ab-4b6a-9e5f-505de59b7cf4}, !- Handle
  {1c0cdbcd-5010-46e8-9966-c4592ff16692}, !- Name
  {23988995-ab11-400e-8c86-ff6d8d2ccdff}; !- HVAC Component

OS:Sizing:Zone,
  {8dc04cd9-22bc-4b7c-970c-9052ca08f0ac}, !- Handle
  {23988995-ab11-400e-8c86-ff6d8d2ccdff}, !- Zone or ZoneList Name
  SupplyAirTemperature,                   !- Zone Cooling Design Supply Air Temperature Input Method
  14,                                     !- Zone Cooling Design Supply Air Temperature {C}
  11.11,                                  !- Zone Cooling Design Supply Air Temperature Difference {deltaC}
  SupplyAirTemperature,                   !- Zone Heating Design Supply Air Temperature Input Method
  40,                                     !- Zone Heating Design Supply Air Temperature {C}
  11.11,                                  !- Zone Heating Design Supply Air Temperature Difference {deltaC}
  0.0085,                                 !- Zone Cooling Design Supply Air Humidity Ratio {kg-H2O/kg-air}
  0.008,                                  !- Zone Heating Design Supply Air Humidity Ratio {kg-H2O/kg-air}
  ,                                       !- Zone Heating Sizing Factor
  ,                                       !- Zone Cooling Sizing Factor
  DesignDay,                              !- Cooling Design Air Flow Method
  ,                                       !- Cooling Design Air Flow Rate {m3/s}
  ,                                       !- Cooling Minimum Air Flow per Zone Floor Area {m3/s-m2}
  ,                                       !- Cooling Minimum Air Flow {m3/s}
  ,                                       !- Cooling Minimum Air Flow Fraction
  DesignDay,                              !- Heating Design Air Flow Method
  ,                                       !- Heating Design Air Flow Rate {m3/s}
  ,                                       !- Heating Maximum Air Flow per Zone Floor Area {m3/s-m2}
  ,                                       !- Heating Maximum Air Flow {m3/s}
  ,                                       !- Heating Maximum Air Flow Fraction
  ,                                       !- Design Zone Air Distribution Effectiveness in Cooling Mode
  ,                                       !- Design Zone Air Distribution Effectiveness in Heating Mode
  No,                                     !- Account for Dedicated Outdoor Air System
  NeutralSupplyAir,                       !- Dedicated Outdoor Air System Control Strategy
  autosize,                               !- Dedicated Outdoor Air Low Setpoint Temperature for Design {C}
  autosize;                               !- Dedicated Outdoor Air High Setpoint Temperature for Design {C}

OS:ZoneHVAC:EquipmentList,
  {d48cf47d-f37d-4f8a-a127-111640d0a794}, !- Handle
  Zone HVAC Equipment List 1,             !- Name
  {23988995-ab11-400e-8c86-ff6d8d2ccdff}; !- Thermal Zone

OS:ThermalZone,
  {af4d0af6-21b4-46cb-aba0-fec860edeab2}, !- Handle
  garage zone,                            !- Name
  ,                                       !- Multiplier
  ,                                       !- Ceiling Height {m}
  ,                                       !- Volume {m3}
  ,                                       !- Floor Area {m2}
  ,                                       !- Zone Inside Convection Algorithm
  ,                                       !- Zone Outside Convection Algorithm
  ,                                       !- Zone Conditioning Equipment List Name
  {4459de93-6850-4202-9f40-b0dc6535bbf4}, !- Zone Air Inlet Port List
  {54085a10-e57e-47e4-9375-de6d39160298}, !- Zone Air Exhaust Port List
  {f652b72d-b16c-4d25-b928-919e1c9e9f0c}, !- Zone Air Node Name
  ,                                       !- Zone Return Air Node Name
  ,                                       !- Primary Daylighting Control Name
  ,                                       !- Fraction of Zone Controlled by Primary Daylighting Control
  ,                                       !- Secondary Daylighting Control Name
  ,                                       !- Fraction of Zone Controlled by Secondary Daylighting Control
  ,                                       !- Illuminance Map Name
  ,                                       !- Group Rendering Name
  ,                                       !- Thermostat Name
  No;                                     !- Use Ideal Air Loads

OS:Node,
  {7636b97c-bef1-43ac-a808-cd5bdc354365}, !- Handle
  Node 2,                                 !- Name
  {f652b72d-b16c-4d25-b928-919e1c9e9f0c}, !- Inlet Port
  ;                                       !- Outlet Port

OS:Connection,
  {f652b72d-b16c-4d25-b928-919e1c9e9f0c}, !- Handle
  {a2da0228-fdef-4816-86b8-150c7ed455ce}, !- Name
  {af4d0af6-21b4-46cb-aba0-fec860edeab2}, !- Source Object
  11,                                     !- Outlet Port
  {7636b97c-bef1-43ac-a808-cd5bdc354365}, !- Target Object
  2;                                      !- Inlet Port

OS:PortList,
  {4459de93-6850-4202-9f40-b0dc6535bbf4}, !- Handle
  {b861855b-5a90-4c6f-b22d-298f33bbf522}, !- Name
  {af4d0af6-21b4-46cb-aba0-fec860edeab2}; !- HVAC Component

OS:PortList,
  {54085a10-e57e-47e4-9375-de6d39160298}, !- Handle
  {7c7a0ae8-aa4c-4ab0-8a04-890dfea9c4b4}, !- Name
  {af4d0af6-21b4-46cb-aba0-fec860edeab2}; !- HVAC Component

OS:Sizing:Zone,
  {45c33636-dd6e-4a09-86a5-7440572d35d3}, !- Handle
  {af4d0af6-21b4-46cb-aba0-fec860edeab2}, !- Zone or ZoneList Name
  SupplyAirTemperature,                   !- Zone Cooling Design Supply Air Temperature Input Method
  14,                                     !- Zone Cooling Design Supply Air Temperature {C}
  11.11,                                  !- Zone Cooling Design Supply Air Temperature Difference {deltaC}
  SupplyAirTemperature,                   !- Zone Heating Design Supply Air Temperature Input Method
  40,                                     !- Zone Heating Design Supply Air Temperature {C}
  11.11,                                  !- Zone Heating Design Supply Air Temperature Difference {deltaC}
  0.0085,                                 !- Zone Cooling Design Supply Air Humidity Ratio {kg-H2O/kg-air}
  0.008,                                  !- Zone Heating Design Supply Air Humidity Ratio {kg-H2O/kg-air}
  ,                                       !- Zone Heating Sizing Factor
  ,                                       !- Zone Cooling Sizing Factor
  DesignDay,                              !- Cooling Design Air Flow Method
  ,                                       !- Cooling Design Air Flow Rate {m3/s}
  ,                                       !- Cooling Minimum Air Flow per Zone Floor Area {m3/s-m2}
  ,                                       !- Cooling Minimum Air Flow {m3/s}
  ,                                       !- Cooling Minimum Air Flow Fraction
  DesignDay,                              !- Heating Design Air Flow Method
  ,                                       !- Heating Design Air Flow Rate {m3/s}
  ,                                       !- Heating Maximum Air Flow per Zone Floor Area {m3/s-m2}
  ,                                       !- Heating Maximum Air Flow {m3/s}
  ,                                       !- Heating Maximum Air Flow Fraction
  ,                                       !- Design Zone Air Distribution Effectiveness in Cooling Mode
  ,                                       !- Design Zone Air Distribution Effectiveness in Heating Mode
  No,                                     !- Account for Dedicated Outdoor Air System
  NeutralSupplyAir,                       !- Dedicated Outdoor Air System Control Strategy
  autosize,                               !- Dedicated Outdoor Air Low Setpoint Temperature for Design {C}
  autosize;                               !- Dedicated Outdoor Air High Setpoint Temperature for Design {C}

OS:ZoneHVAC:EquipmentList,
  {abd3fb4d-b603-407b-92bb-dd0d2057a66f}, !- Handle
  Zone HVAC Equipment List 2,             !- Name
  {af4d0af6-21b4-46cb-aba0-fec860edeab2}; !- Thermal Zone

OS:Space,
  {7c548338-d107-445a-8993-2222afbacd41}, !- Handle
  garage space,                           !- Name
  ,                                       !- Space Type Name
  ,                                       !- Default Construction Set Name
  ,                                       !- Default Schedule Set Name
  -0,                                     !- Direction of Relative North {deg}
  0,                                      !- X Origin {m}
  0,                                      !- Y Origin {m}
  0,                                      !- Z Origin {m}
  ,                                       !- Building Story Name
  {af4d0af6-21b4-46cb-aba0-fec860edeab2}, !- Thermal Zone Name
  ,                                       !- Part of Total Floor Area
  ,                                       !- Design Specification Outdoor Air Object Name
  {a59d3f41-2729-4b2c-adc7-28078970ad04}; !- Building Unit Name

OS:Surface,
  {00e1c986-a2ad-4509-a186-7fa15dffd8fa}, !- Handle
  Surface 1,                              !- Name
  Floor,                                  !- Surface Type
  ,                                       !- Construction Name
  {7c548338-d107-445a-8993-2222afbacd41}, !- Space Name
  Ground,                                 !- Outside Boundary Condition
  ,                                       !- Outside Boundary Condition Object
  NoSun,                                  !- Sun Exposure
  NoWind,                                 !- Wind Exposure
  ,                                       !- View Factor to Ground
  ,                                       !- Number of Vertices
  14.1221447220065, -3.048, 0,            !- X,Y,Z Vertex 1 {m}
  14.1221447220065, 3.048, 0,             !- X,Y,Z Vertex 2 {m}
  20.2181447220065, 3.048, 0,             !- X,Y,Z Vertex 3 {m}
  20.2181447220065, -3.048, 0;            !- X,Y,Z Vertex 4 {m}

OS:Surface,
  {ee98bd24-19a9-409d-90de-8b2080e6b705}, !- Handle
  Surface 2,                              !- Name
  Wall,                                   !- Surface Type
  ,                                       !- Construction Name
  {7c548338-d107-445a-8993-2222afbacd41}, !- Space Name
  Surface,                                !- Outside Boundary Condition
  {19be595c-48be-4bbf-a201-def98080c3a2}, !- Outside Boundary Condition Object
  NoSun,                                  !- Sun Exposure
  NoWind,                                 !- Wind Exposure
  ,                                       !- View Factor to Ground
  ,                                       !- Number of Vertices
  14.1221447220065, 3.048, 2.4384,        !- X,Y,Z Vertex 1 {m}
  14.1221447220065, 3.048, 0,             !- X,Y,Z Vertex 2 {m}
  14.1221447220065, 0, 0,                 !- X,Y,Z Vertex 3 {m}
  14.1221447220065, 0, 2.4384;            !- X,Y,Z Vertex 4 {m}

OS:Surface,
  {f7087442-af28-4f52-b32d-91e165208848}, !- Handle
  Surface 3,                              !- Name
  Wall,                                   !- Surface Type
  ,                                       !- Construction Name
  {7c548338-d107-445a-8993-2222afbacd41}, !- Space Name
  Surface,                                !- Outside Boundary Condition
  {f785ff99-7ae9-49b9-8b0f-3fc3cf9a4c2c}, !- Outside Boundary Condition Object
  NoSun,                                  !- Sun Exposure
  NoWind,                                 !- Wind Exposure
  ,                                       !- View Factor to Ground
  ,                                       !- Number of Vertices
  20.2181447220065, 3.048, 2.4384,        !- X,Y,Z Vertex 1 {m}
  20.2181447220065, 3.048, 0,             !- X,Y,Z Vertex 2 {m}
  14.1221447220065, 3.048, 0,             !- X,Y,Z Vertex 3 {m}
  14.1221447220065, 3.048, 2.4384;        !- X,Y,Z Vertex 4 {m}

OS:Surface,
  {0be3507b-58ee-4032-bc20-615ef0fe2969}, !- Handle
  Surface 4,                              !- Name
  Wall,                                   !- Surface Type
  ,                                       !- Construction Name
  {7c548338-d107-445a-8993-2222afbacd41}, !- Space Name
  Outdoors,                               !- Outside Boundary Condition
  ,                                       !- Outside Boundary Condition Object
  SunExposed,                             !- Sun Exposure
  WindExposed,                            !- Wind Exposure
  ,                                       !- View Factor to Ground
  ,                                       !- Number of Vertices
  20.2181447220065, -3.048, 2.4384,       !- X,Y,Z Vertex 1 {m}
  20.2181447220065, -3.048, 0,            !- X,Y,Z Vertex 2 {m}
  20.2181447220065, 3.048, 0,             !- X,Y,Z Vertex 3 {m}
  20.2181447220065, 3.048, 2.4384;        !- X,Y,Z Vertex 4 {m}

OS:Surface,
  {93fe55c6-96d1-49c3-8684-2f66355e71e8}, !- Handle
  Surface 5,                              !- Name
  Wall,                                   !- Surface Type
  ,                                       !- Construction Name
  {7c548338-d107-445a-8993-2222afbacd41}, !- Space Name
  Outdoors,                               !- Outside Boundary Condition
  ,                                       !- Outside Boundary Condition Object
  SunExposed,                             !- Sun Exposure
  WindExposed,                            !- Wind Exposure
  ,                                       !- View Factor to Ground
  ,                                       !- Number of Vertices
  14.1221447220065, -3.048, 2.4384,       !- X,Y,Z Vertex 1 {m}
  14.1221447220065, -3.048, 0,            !- X,Y,Z Vertex 2 {m}
  20.2181447220065, -3.048, 0,            !- X,Y,Z Vertex 3 {m}
  20.2181447220065, -3.048, 2.4384;       !- X,Y,Z Vertex 4 {m}

OS:Surface,
  {9f76a9ae-4ef7-40ff-9417-f72cfbea803b}, !- Handle
  Surface 6,                              !- Name
  RoofCeiling,                            !- Surface Type
  ,                                       !- Construction Name
  {7c548338-d107-445a-8993-2222afbacd41}, !- Space Name
  Outdoors,                               !- Outside Boundary Condition
  ,                                       !- Outside Boundary Condition Object
  SunExposed,                             !- Sun Exposure
  WindExposed,                            !- Wind Exposure
  ,                                       !- View Factor to Ground
  ,                                       !- Number of Vertices
  20.2181447220065, -3.048, 2.4384,       !- X,Y,Z Vertex 1 {m}
  20.2181447220065, 3.048, 2.4384,        !- X,Y,Z Vertex 2 {m}
  14.1221447220065, 3.048, 2.4384,        !- X,Y,Z Vertex 3 {m}
  14.1221447220065, -3.048, 2.4384;       !- X,Y,Z Vertex 4 {m}

OS:Space,
  {c333a006-50ca-48df-9450-ec4f373a2b5a}, !- Handle
  living space,                           !- Name
  ,                                       !- Space Type Name
  ,                                       !- Default Construction Set Name
  ,                                       !- Default Schedule Set Name
  -0,                                     !- Direction of Relative North {deg}
  0,                                      !- X Origin {m}
  0,                                      !- Y Origin {m}
  0,                                      !- Z Origin {m}
  ,                                       !- Building Story Name
  {23988995-ab11-400e-8c86-ff6d8d2ccdff}, !- Thermal Zone Name
  ,                                       !- Part of Total Floor Area
  ,                                       !- Design Specification Outdoor Air Object Name
  {a59d3f41-2729-4b2c-adc7-28078970ad04}; !- Building Unit Name

OS:Surface,
  {45101096-fbcf-485f-a2a7-7480d6c9ef0a}, !- Handle
  Surface 7,                              !- Name
  Floor,                                  !- Surface Type
  ,                                       !- Construction Name
  {c333a006-50ca-48df-9450-ec4f373a2b5a}, !- Space Name
  Ground,                                 !- Outside Boundary Condition
  ,                                       !- Outside Boundary Condition Object
  NoSun,                                  !- Sun Exposure
  NoWind,                                 !- Wind Exposure
  ,                                       !- View Factor to Ground
  ,                                       !- Number of Vertices
  0, 0, 0,                                !- X,Y,Z Vertex 1 {m}
  0, 10.1090723610033, 0,                 !- X,Y,Z Vertex 2 {m}
  20.2181447220065, 10.1090723610033, 0,  !- X,Y,Z Vertex 3 {m}
  20.2181447220065, 3.048, 0,             !- X,Y,Z Vertex 4 {m}
  14.1221447220065, 3.048, 0,             !- X,Y,Z Vertex 5 {m}
  14.1221447220065, 0, 0;                 !- X,Y,Z Vertex 6 {m}

OS:Surface,
  {e11c75d3-ad14-4a09-b860-6637f125989c}, !- Handle
  Surface 8,                              !- Name
  Wall,                                   !- Surface Type
  ,                                       !- Construction Name
  {c333a006-50ca-48df-9450-ec4f373a2b5a}, !- Space Name
  Outdoors,                               !- Outside Boundary Condition
  ,                                       !- Outside Boundary Condition Object
  SunExposed,                             !- Sun Exposure
  WindExposed,                            !- Wind Exposure
  ,                                       !- View Factor to Ground
  ,                                       !- Number of Vertices
  0, 10.1090723610033, 2.4384,            !- X,Y,Z Vertex 1 {m}
  0, 10.1090723610033, 0,                 !- X,Y,Z Vertex 2 {m}
  0, 0, 0,                                !- X,Y,Z Vertex 3 {m}
  0, 0, 2.4384;                           !- X,Y,Z Vertex 4 {m}

OS:Surface,
  {9a74be34-59c1-401c-9b59-f6c8fa682a6f}, !- Handle
  Surface 9,                              !- Name
  Wall,                                   !- Surface Type
  ,                                       !- Construction Name
  {c333a006-50ca-48df-9450-ec4f373a2b5a}, !- Space Name
  Outdoors,                               !- Outside Boundary Condition
  ,                                       !- Outside Boundary Condition Object
  SunExposed,                             !- Sun Exposure
  WindExposed,                            !- Wind Exposure
  ,                                       !- View Factor to Ground
  ,                                       !- Number of Vertices
  20.2181447220065, 10.1090723610033, 2.4384, !- X,Y,Z Vertex 1 {m}
  20.2181447220065, 10.1090723610033, 0,  !- X,Y,Z Vertex 2 {m}
  0, 10.1090723610033, 0,                 !- X,Y,Z Vertex 3 {m}
  0, 10.1090723610033, 2.4384;            !- X,Y,Z Vertex 4 {m}

OS:Surface,
  {29c4e45b-5b1c-4643-a2d4-73d0d86e1b2a}, !- Handle
  Surface 10,                             !- Name
  Wall,                                   !- Surface Type
  ,                                       !- Construction Name
  {c333a006-50ca-48df-9450-ec4f373a2b5a}, !- Space Name
  Outdoors,                               !- Outside Boundary Condition
  ,                                       !- Outside Boundary Condition Object
  SunExposed,                             !- Sun Exposure
  WindExposed,                            !- Wind Exposure
  ,                                       !- View Factor to Ground
  ,                                       !- Number of Vertices
  20.2181447220065, 3.048, 2.4384,        !- X,Y,Z Vertex 1 {m}
  20.2181447220065, 3.048, 0,             !- X,Y,Z Vertex 2 {m}
  20.2181447220065, 10.1090723610033, 0,  !- X,Y,Z Vertex 3 {m}
  20.2181447220065, 10.1090723610033, 2.4384; !- X,Y,Z Vertex 4 {m}

OS:Surface,
  {f785ff99-7ae9-49b9-8b0f-3fc3cf9a4c2c}, !- Handle
  Surface 11,                             !- Name
  Wall,                                   !- Surface Type
  ,                                       !- Construction Name
  {c333a006-50ca-48df-9450-ec4f373a2b5a}, !- Space Name
  Surface,                                !- Outside Boundary Condition
  {f7087442-af28-4f52-b32d-91e165208848}, !- Outside Boundary Condition Object
  NoSun,                                  !- Sun Exposure
  NoWind,                                 !- Wind Exposure
  ,                                       !- View Factor to Ground
  ,                                       !- Number of Vertices
  14.1221447220065, 3.048, 2.4384,        !- X,Y,Z Vertex 1 {m}
  14.1221447220065, 3.048, 0,             !- X,Y,Z Vertex 2 {m}
  20.2181447220065, 3.048, 0,             !- X,Y,Z Vertex 3 {m}
  20.2181447220065, 3.048, 2.4384;        !- X,Y,Z Vertex 4 {m}

OS:Surface,
  {19be595c-48be-4bbf-a201-def98080c3a2}, !- Handle
  Surface 12,                             !- Name
  Wall,                                   !- Surface Type
  ,                                       !- Construction Name
  {c333a006-50ca-48df-9450-ec4f373a2b5a}, !- Space Name
  Surface,                                !- Outside Boundary Condition
  {ee98bd24-19a9-409d-90de-8b2080e6b705}, !- Outside Boundary Condition Object
  NoSun,                                  !- Sun Exposure
  NoWind,                                 !- Wind Exposure
  ,                                       !- View Factor to Ground
  ,                                       !- Number of Vertices
  14.1221447220065, 0, 2.4384,            !- X,Y,Z Vertex 1 {m}
  14.1221447220065, 0, 0,                 !- X,Y,Z Vertex 2 {m}
  14.1221447220065, 3.048, 0,             !- X,Y,Z Vertex 3 {m}
  14.1221447220065, 3.048, 2.4384;        !- X,Y,Z Vertex 4 {m}

OS:Surface,
  {1c2dca08-b8dc-444f-8417-e86b8a790f2b}, !- Handle
  Surface 13,                             !- Name
  Wall,                                   !- Surface Type
  ,                                       !- Construction Name
  {c333a006-50ca-48df-9450-ec4f373a2b5a}, !- Space Name
  Outdoors,                               !- Outside Boundary Condition
  ,                                       !- Outside Boundary Condition Object
  SunExposed,                             !- Sun Exposure
  WindExposed,                            !- Wind Exposure
  ,                                       !- View Factor to Ground
  ,                                       !- Number of Vertices
  0, 0, 2.4384,                           !- X,Y,Z Vertex 1 {m}
  0, 0, 0,                                !- X,Y,Z Vertex 2 {m}
  14.1221447220065, 0, 0,                 !- X,Y,Z Vertex 3 {m}
  14.1221447220065, 0, 2.4384;            !- X,Y,Z Vertex 4 {m}

OS:Surface,
  {775c7329-2e29-464e-be59-ebe5bed9db29}, !- Handle
  Surface 14,                             !- Name
  RoofCeiling,                            !- Surface Type
  ,                                       !- Construction Name
  {c333a006-50ca-48df-9450-ec4f373a2b5a}, !- Space Name
  Outdoors,                               !- Outside Boundary Condition
  ,                                       !- Outside Boundary Condition Object
  SunExposed,                             !- Sun Exposure
  WindExposed,                            !- Wind Exposure
  ,                                       !- View Factor to Ground
  ,                                       !- Number of Vertices
  14.1221447220065, 0, 2.4384,            !- X,Y,Z Vertex 1 {m}
  14.1221447220065, 3.048, 2.4384,        !- X,Y,Z Vertex 2 {m}
  20.2181447220065, 3.048, 2.4384,        !- X,Y,Z Vertex 3 {m}
  20.2181447220065, 10.1090723610033, 2.4384, !- X,Y,Z Vertex 4 {m}
  0, 10.1090723610033, 2.4384,            !- X,Y,Z Vertex 5 {m}
  0, 0, 2.4384;                           !- X,Y,Z Vertex 6 {m}

OS:Surface,
  {bcc9ece0-a35a-4517-b4da-f9c0705c3d95}, !- Handle
  Surface 15,                             !- Name
  Wall,                                   !- Surface Type
  ,                                       !- Construction Name
  {7c548338-d107-445a-8993-2222afbacd41}, !- Space Name
  Outdoors,                               !- Outside Boundary Condition
  ,                                       !- Outside Boundary Condition Object
  SunExposed,                             !- Sun Exposure