!- NOTE: Auto-generated from /test/osw_files/SFD_2000sqft_2story_SL_GRGLeft_FlatRoof.osw

OS:Version,
  {fc003c06-618b-4051-9b37-6b6f71b12672}, !- Handle
  2.2.0;                                  !- Version Identifier

OS:Building,
  {bf305633-c5a1-4881-9edf-ca5e1a8e1274}, !- Handle
  Building,                               !- Name
  ,                                       !- Building Sector Type
  ,                                       !- North Axis {deg}
  ,                                       !- Nominal Floor to Floor Height {m}
  ,                                       !- Space Type Name
  ,                                       !- Default Construction Set Name
  ,                                       !- Default Schedule Set Name
  2,                                      !- Standards Number of Stories
  2,                                      !- Standards Number of Above Ground Stories
  singlefamilydetached,                   !- Standards Building Type
  1;                                      !- Standards Number of Living Units

OS:YearDescription,
  {513d8dda-86cb-442a-b01c-1f7f0e0ac70e}; !- Handle

OS:SimulationControl,
  {2c487a4c-bac9-4ac5-b669-1e49d9da7c2b}, !- Handle
  ,                                       !- Do Zone Sizing Calculation
  ,                                       !- Do System Sizing Calculation
  ,                                       !- Do Plant Sizing Calculation
  No,                                     !- Run Simulation for Sizing Periods
  ;                                       !- Run Simulation for Weather File Run Periods

OS:Timestep,
  {4ebc9f1e-4707-402e-9844-67eb1ffbd522}, !- Handle
  6;                                      !- Number of Timesteps per Hour

OS:RunPeriod,
  {28df894d-6af9-4fb8-8f56-df1753344aa3}, !- Handle
  Run Period,                             !- Name
  1,                                      !- Begin Month
  1,                                      !- Begin Day of Month
  12,                                     !- End Month
  31,                                     !- End Day of Month
  ,                                       !- Use Weather File Holidays and Special Days
  ,                                       !- Use Weather File Daylight Saving Period
  ,                                       !- Apply Weekend Holiday Rule
  ,                                       !- Use Weather File Rain Indicators
  ,                                       !- Use Weather File Snow Indicators
  ;                                       !- Number of Times Runperiod to be Repeated

OS:Sizing:Parameters,
  {dde5af6f-7923-4600-a28a-7556673a0266}, !- Handle
  1.0,                                    !- Heating Sizing Factor
  1.0;                                    !- Cooling Sizing Factor

OS:ShadowCalculation,
  {ca758bea-4416-4626-9bba-3d8795c79bd6}, !- Handle
  20,                                     !- Calculation Frequency
  200;                                    !- Maximum Figures in Shadow Overlap Calculations

OS:SurfaceConvectionAlgorithm:Inside,
  {aaabfc36-718a-4ab0-b622-f186ebb45230}, !- Handle
  TARP;                                   !- Algorithm

OS:SurfaceConvectionAlgorithm:Outside,
  {9a0a9f6f-4bbd-4b12-a121-9492a1fcd7d6}, !- Handle
  DOE-2;                                  !- Algorithm

OS:HeatBalanceAlgorithm,
  {9d93e563-e1e0-46d7-9e39-d1c8aceb7212}, !- Handle
  ConductionTransferFunction,             !- Algorithm
  200;                                    !- Surface Temperature Upper Limit {C}

OS:ZoneCapacitanceMultiplier:ResearchSpecial,
  {6bfced16-b16f-47f6-8223-f7e267d75d19}, !- Handle
  ,                                       !- Temperature Capacity Multiplier
  15,                                     !- Humidity Capacity Multiplier
  ;                                       !- Carbon Dioxide Capacity Multiplier

OS:ThermalZone,
  {4ef4e774-c613-47e5-95ba-7bc8564dfcc5}, !- Handle
  living zone,                            !- Name
  ,                                       !- Multiplier
  ,                                       !- Ceiling Height {m}
  ,                                       !- Volume {m3}
  ,                                       !- Floor Area {m2}
  ,                                       !- Zone Inside Convection Algorithm
  ,                                       !- Zone Outside Convection Algorithm
  ,                                       !- Zone Conditioning Equipment List Name
  {9c2709b0-14f8-4c9e-a74e-df8e15ab96f5}, !- Zone Air Inlet Port List
  {3bf8a748-e78b-4e5a-8e93-34507c2930de}, !- Zone Air Exhaust Port List
  {f945115a-a83f-45e7-b157-e3cc1d291c8f}, !- Zone Air Node Name
  ,                                       !- Zone Return Air Node Name
  ,                                       !- Primary Daylighting Control Name
  ,                                       !- Fraction of Zone Controlled by Primary Daylighting Control
  ,                                       !- Secondary Daylighting Control Name
  ,                                       !- Fraction of Zone Controlled by Secondary Daylighting Control
  ,                                       !- Illuminance Map Name
  ,                                       !- Group Rendering Name
  ,                                       !- Thermostat Name
  No;                                     !- Use Ideal Air Loads

OS:Node,
  {162cdb94-da61-408d-827d-43ee3971da84}, !- Handle
  Node 1,                                 !- Name
  {f945115a-a83f-45e7-b157-e3cc1d291c8f}, !- Inlet Port
  ;                                       !- Outlet Port

OS:Connection,
  {f945115a-a83f-45e7-b157-e3cc1d291c8f}, !- Handle
  {82a7828e-9cac-4fc4-9a73-637e429d5234}, !- Name
  {4ef4e774-c613-47e5-95ba-7bc8564dfcc5}, !- Source Object
  11,                                     !- Outlet Port
  {162cdb94-da61-408d-827d-43ee3971da84}, !- Target Object
  2;                                      !- Inlet Port

OS:PortList,
  {9c2709b0-14f8-4c9e-a74e-df8e15ab96f5}, !- Handle
  {8e246d41-efb0-4496-be8c-a5ad57378636}, !- Name
  {4ef4e774-c613-47e5-95ba-7bc8564dfcc5}; !- HVAC Component

OS:PortList,
  {3bf8a748-e78b-4e5a-8e93-34507c2930de}, !- Handle
  {0d805ca7-f13a-4b7c-a416-cd2875f74f80}, !- Name
  {4ef4e774-c613-47e5-95ba-7bc8564dfcc5}; !- HVAC Component

OS:Sizing:Zone,
  {c0ee41e1-2472-4a1b-90b8-893a2028853d}, !- Handle
  {4ef4e774-c613-47e5-95ba-7bc8564dfcc5}, !- Zone or ZoneList Name
  SupplyAirTemperature,                   !- Zone Cooling Design Supply Air Temperature Input Method
  14,                                     !- Zone Cooling Design Supply Air Temperature {C}
  11.11,                                  !- Zone Cooling Design Supply Air Temperature Difference {deltaC}
  SupplyAirTemperature,                   !- Zone Heating Design Supply Air Temperature Input Method
  40,                                     !- Zone Heating Design Supply Air Temperature {C}
  11.11,                                  !- Zone Heating Design Supply Air Temperature Difference {deltaC}
  0.0085,                                 !- Zone Cooling Design Supply Air Humidity Ratio {kg-H2O/kg-air}
  0.008,                                  !- Zone Heating Design Supply Air Humidity Ratio {kg-H2O/kg-air}
  ,                                       !- Zone Heating Sizing Factor
  ,                                       !- Zone Cooling Sizing Factor
  DesignDay,                              !- Cooling Design Air Flow Method
  ,                                       !- Cooling Design Air Flow Rate {m3/s}
  ,                                       !- Cooling Minimum Air Flow per Zone Floor Area {m3/s-m2}
  ,                                       !- Cooling Minimum Air Flow {m3/s}
  ,                                       !- Cooling Minimum Air Flow Fraction
  DesignDay,                              !- Heating Design Air Flow Method
  ,                                       !- Heating Design Air Flow Rate {m3/s}
  ,                                       !- Heating Maximum Air Flow per Zone Floor Area {m3/s-m2}
  ,                                       !- Heating Maximum Air Flow {m3/s}
  ,                                       !- Heating Maximum Air Flow Fraction
  ,                                       !- Design Zone Air Distribution Effectiveness in Cooling Mode
  ,                                       !- Design Zone Air Distribution Effectiveness in Heating Mode
  No,                                     !- Account for Dedicated Outdoor Air System
  NeutralSupplyAir,                       !- Dedicated Outdoor Air System Control Strategy
  autosize,                               !- Dedicated Outdoor Air Low Setpoint Temperature for Design {C}
  autosize;                               !- Dedicated Outdoor Air High Setpoint Temperature for Design {C}

OS:ZoneHVAC:EquipmentList,
  {05580f88-d550-4502-8dc4-314365ee5cb4}, !- Handle
  Zone HVAC Equipment List 1,             !- Name
  {4ef4e774-c613-47e5-95ba-7bc8564dfcc5}; !- Thermal Zone

OS:ThermalZone,
  {4705c6ab-c6ac-4e0a-ab90-07dc85dede23}, !- Handle
  garage zone,                            !- Name
  ,                                       !- Multiplier
  ,                                       !- Ceiling Height {m}
  ,                                       !- Volume {m3}
  ,                                       !- Floor Area {m2}
  ,                                       !- Zone Inside Convection Algorithm
  ,                                       !- Zone Outside Convection Algorithm
  ,                                       !- Zone Conditioning Equipment List Name
  {8c6f3075-5d8d-490e-939f-38eb837ff809}, !- Zone Air Inlet Port List
  {d90c986c-4180-4080-9814-5acb716f20d1}, !- Zone Air Exhaust Port List
  {5eba72c4-26a6-489f-a035-9e1a16aec35b}, !- Zone Air Node Name
  ,                                       !- Zone Return Air Node Name
  ,                                       !- Primary Daylighting Control Name
  ,                                       !- Fraction of Zone Controlled by Primary Daylighting Control
  ,                                       !- Secondary Daylighting Control Name
  ,                                       !- Fraction of Zone Controlled by Secondary Daylighting Control
  ,                                       !- Illuminance Map Name
  ,                                       !- Group Rendering Name
  ,                                       !- Thermostat Name
  No;                                     !- Use Ideal Air Loads

OS:Node,
  {9d13b8a1-053f-4158-9858-823551349728}, !- Handle
  Node 2,                                 !- Name
  {5eba72c4-26a6-489f-a035-9e1a16aec35b}, !- Inlet Port
  ;                                       !- Outlet Port

OS:Connection,
  {5eba72c4-26a6-489f-a035-9e1a16aec35b}, !- Handle
  {ea769ff4-34b3-4505-99d1-d9fd0c007d4a}, !- Name
  {4705c6ab-c6ac-4e0a-ab90-07dc85dede23}, !- Source Object
  11,                                     !- Outlet Port
  {9d13b8a1-053f-4158-9858-823551349728}, !- Target Object
  2;                                      !- Inlet Port

OS:PortList,
  {8c6f3075-5d8d-490e-939f-38eb837ff809}, !- Handle
  {d2cf3ba2-2ec6-4729-8a53-6d6188176940}, !- Name
  {4705c6ab-c6ac-4e0a-ab90-07dc85dede23}; !- HVAC Component

OS:PortList,
  {d90c986c-4180-4080-9814-5acb716f20d1}, !- Handle
  {1c9d2978-590b-4264-a9f9-fdcf3920bd2a}, !- Name
  {4705c6ab-c6ac-4e0a-ab90-07dc85dede23}; !- HVAC Component

OS:Sizing:Zone,
  {c94b69d7-2346-46b6-88c1-29c1a43c8139}, !- Handle
  {4705c6ab-c6ac-4e0a-ab90-07dc85dede23}, !- Zone or ZoneList Name
  SupplyAirTemperature,                   !- Zone Cooling Design Supply Air Temperature Input Method
  14,                                     !- Zone Cooling Design Supply Air Temperature {C}
  11.11,                                  !- Zone Cooling Design Supply Air Temperature Difference {deltaC}
  SupplyAirTemperature,                   !- Zone Heating Design Supply Air Temperature Input Method
  40,                                     !- Zone Heating Design Supply Air Temperature {C}
  11.11,                                  !- Zone Heating Design Supply Air Temperature Difference {deltaC}
  0.0085,                                 !- Zone Cooling Design Supply Air Humidity Ratio {kg-H2O/kg-air}
  0.008,                                  !- Zone Heating Design Supply Air Humidity Ratio {kg-H2O/kg-air}
  ,                                       !- Zone Heating Sizing Factor
  ,                                       !- Zone Cooling Sizing Factor
  DesignDay,                              !- Cooling Design Air Flow Method
  ,                                       !- Cooling Design Air Flow Rate {m3/s}
  ,                                       !- Cooling Minimum Air Flow per Zone Floor Area {m3/s-m2}
  ,                                       !- Cooling Minimum Air Flow {m3/s}
  ,                                       !- Cooling Minimum Air Flow Fraction
  DesignDay,                              !- Heating Design Air Flow Method
  ,                                       !- Heating Design Air Flow Rate {m3/s}
  ,                                       !- Heating Maximum Air Flow per Zone Floor Area {m3/s-m2}
  ,                                       !- Heating Maximum Air Flow {m3/s}
  ,                                       !- Heating Maximum Air Flow Fraction
  ,                                       !- Design Zone Air Distribution Effectiveness in Cooling Mode
  ,                                       !- Design Zone Air Distribution Effectiveness in Heating Mode
  No,                                     !- Account for Dedicated Outdoor Air System
  NeutralSupplyAir,                       !- Dedicated Outdoor Air System Control Strategy
  autosize,                               !- Dedicated Outdoor Air Low Setpoint Temperature for Design {C}
  autosize;                               !- Dedicated Outdoor Air High Setpoint Temperature for Design {C}

OS:ZoneHVAC:EquipmentList,
  {b6ce6e0d-24f7-496f-a5ca-a8f21d9349c2}, !- Handle
  Zone HVAC Equipment List 2,             !- Name
  {4705c6ab-c6ac-4e0a-ab90-07dc85dede23}; !- Thermal Zone

OS:Space,
  {fe8e2ea5-e56c-43ca-a5ac-80c1f71717a0}, !- Handle
  garage space,                           !- Name
  ,                                       !- Space Type Name
  ,                                       !- Default Construction Set Name
  ,                                       !- Default Schedule Set Name
  -0,                                     !- Direction of Relative North {deg}
  0,                                      !- X Origin {m}
  0,                                      !- Y Origin {m}
  0,                                      !- Z Origin {m}
  ,                                       !- Building Story Name
  {4705c6ab-c6ac-4e0a-ab90-07dc85dede23}, !- Thermal Zone Name
  ,                                       !- Part of Total Floor Area
  ,                                       !- Design Specification Outdoor Air Object Name
  {9d5c2e97-f05f-4fd5-82a4-f1bc7e319d86}; !- Building Unit Name

OS:Surface,
  {d9dab4fa-e895-4714-a5f5-ac78195a0443}, !- Handle
  Surface 1,                              !- Name
  Floor,                                  !- Surface Type
  ,                                       !- Construction Name
  {fe8e2ea5-e56c-43ca-a5ac-80c1f71717a0}, !- Space Name
  Ground,                                 !- Outside Boundary Condition
  ,                                       !- Outside Boundary Condition Object
  NoSun,                                  !- Sun Exposure
  NoWind,                                 !- Wind Exposure
  ,                                       !- View Factor to Ground
  ,                                       !- Number of Vertices
  0, -3.048, 0,                           !- X,Y,Z Vertex 1 {m}
  0, 3.048, 0,                            !- X,Y,Z Vertex 2 {m}
  6.096, 3.048, 0,                        !- X,Y,Z Vertex 3 {m}
  6.096, -3.048, 0;                       !- X,Y,Z Vertex 4 {m}

OS:Surface,
  {89cf48f4-5438-457a-be0d-639aeaefc6cf}, !- Handle
  Surface 2,                              !- Name
  Wall,                                   !- Surface Type
  ,                                       !- Construction Name
  {fe8e2ea5-e56c-43ca-a5ac-80c1f71717a0}, !- Space Name
  Outdoors,                               !- Outside Boundary Condition
  ,                                       !- Outside Boundary Condition Object
  SunExposed,                             !- Sun Exposure
  WindExposed,                            !- Wind Exposure
  ,                                       !- View Factor to Ground
  ,                                       !- Number of Vertices
  0, 3.048, 2.4384,                       !- X,Y,Z Vertex 1 {m}
  0, 3.048, 0,                            !- X,Y,Z Vertex 2 {m}
  0, -3.048, 0,                           !- X,Y,Z Vertex 3 {m}
  0, -3.048, 2.4384;                      !- X,Y,Z Vertex 4 {m}

OS:Surface,
  {5083d1f9-ba9c-46f7-9acd-1c3654e90760}, !- Handle
  Surface 3,                              !- Name
  Wall,                                   !- Surface Type
  ,                                       !- Construction Name
  {fe8e2ea5-e56c-43ca-a5ac-80c1f71717a0}, !- Space Name
  Surface,                                !- Outside Boundary Condition
  {9aa0f660-6558-42e8-aacd-dfa16351f479}, !- Outside Boundary Condition Object
  NoSun,                                  !- Sun Exposure
  NoWind,                                 !- Wind Exposure
  ,                                       !- View Factor to Ground
  ,                                       !- Number of Vertices
  6.096, 3.048, 2.4384,                   !- X,Y,Z Vertex 1 {m}
  6.096, 3.048, 0,                        !- X,Y,Z Vertex 2 {m}
  0, 3.048, 0,                            !- X,Y,Z Vertex 3 {m}
  0, 3.048, 2.4384;                       !- X,Y,Z Vertex 4 {m}

OS:Surface,
  {7184c822-4540-4cb0-9d9e-e9225d893637}, !- Handle
  Surface 4,                              !- Name
  Wall,                                   !- Surface Type
  ,                                       !- Construction Name
  {fe8e2ea5-e56c-43ca-a5ac-80c1f71717a0}, !- Space Name
  Surface,                                !- Outside Boundary Condition
  {8ecb4fc1-0ac0-4ec8-9bcb-0ce457224cb2}, !- Outside Boundary Condition Object
  NoSun,                                  !- Sun Exposure
  NoWind,                                 !- Wind Exposure
  ,                                       !- View Factor to Ground
  ,                                       !- Number of Vertices
  6.096, 0, 2.4384,                       !- X,Y,Z Vertex 1 {m}
  6.096, 0, 0,                            !- X,Y,Z Vertex 2 {m}
  6.096, 3.048, 0,                        !- X,Y,Z Vertex 3 {m}
  6.096, 3.048, 2.4384;                   !- X,Y,Z Vertex 4 {m}

OS:Surface,
  {f639eec2-4af1-43df-9f4a-373be04dca2d}, !- Handle
  Surface 5,                              !- Name
  Wall,                                   !- Surface Type
  ,                                       !- Construction Name
  {fe8e2ea5-e56c-43ca-a5ac-80c1f71717a0}, !- Space Name
  Outdoors,                               !- Outside Boundary Condition
  ,                                       !- Outside Boundary Condition Object
  SunExposed,                             !- Sun Exposure
  WindExposed,                            !- Wind Exposure
  ,                                       !- View Factor to Ground
  ,                                       !- Number of Vertices
  0, -3.048, 2.4384,                      !- X,Y,Z Vertex 1 {m}
  0, -3.048, 0,                           !- X,Y,Z Vertex 2 {m}
  6.096, -3.048, 0,                       !- X,Y,Z Vertex 3 {m}
  6.096, -3.048, 2.4384;                  !- X,Y,Z Vertex 4 {m}

OS:Surface,
  {293251e0-d350-492b-beae-4ca6289629af}, !- Handle
  Surface 6,                              !- Name
  RoofCeiling,                            !- Surface Type
  ,                                       !- Construction Name
  {fe8e2ea5-e56c-43ca-a5ac-80c1f71717a0}, !- Space Name
  Outdoors,                               !- Outside Boundary Condition
  ,                                       !- Outside Boundary Condition Object
  SunExposed,                             !- Sun Exposure
  WindExposed,                            !- Wind Exposure
  ,                                       !- View Factor to Ground
  ,                                       !- Number of Vertices
  6.096, -3.048, 2.4384,                  !- X,Y,Z Vertex 1 {m}
  6.096, 3.048, 2.4384,                   !- X,Y,Z Vertex 2 {m}
  0, 3.048, 2.4384,                       !- X,Y,Z Vertex 3 {m}
  0, -3.048, 2.4384;                      !- X,Y,Z Vertex 4 {m}

OS:Space,
  {7e3c5b84-07a9-4709-a31b-9e03dcc8e586}, !- Handle
  living space,                           !- Name
  ,                                       !- Space Type Name
  ,                                       !- Default Construction Set Name
  ,                                       !- Default Schedule Set Name
  -0,                                     !- Direction of Relative North {deg}
  0,                                      !- X Origin {m}
  0,                                      !- Y Origin {m}
  0,                                      !- Z Origin {m}
  ,                                       !- Building Story Name
  {4ef4e774-c613-47e5-95ba-7bc8564dfcc5}, !- Thermal Zone Name
  ,                                       !- Part of Total Floor Area
  ,                                       !- Design Specification Outdoor Air Object Name
  {9d5c2e97-f05f-4fd5-82a4-f1bc7e319d86}; !- Building Unit Name

OS:Surface,
  {7b0797a0-764f-4c71-a5a1-40066550b329}, !- Handle
  Surface 7,                              !- Name
  Floor,                                  !- Surface Type
  ,                                       !- Construction Name
  {7e3c5b84-07a9-4709-a31b-9e03dcc8e586}, !- Space Name
  Ground,                                 !- Outside Boundary Condition
  ,                                       !- Outside Boundary Condition Object
  NoSun,                                  !- Sun Exposure
  NoWind,                                 !- Wind Exposure
  ,                                       !- View Factor to Ground
  ,                                       !- Number of Vertices
  0, 3.048, 0,                            !- X,Y,Z Vertex 1 {m}
  0, 6.81553519541936, 0,                 !- X,Y,Z Vertex 2 {m}
  13.6310703908387, 6.81553519541936, 0,  !- X,Y,Z Vertex 3 {m}
  13.6310703908387, 0, 0,                 !- X,Y,Z Vertex 4 {m}
  6.096, 0, 0,                            !- X,Y,Z Vertex 5 {m}
  6.096, 3.048, 0;                        !- X,Y,Z Vertex 6 {m}

OS:Surface,
  {95f9908c-172c-490b-8632-bd0cc3533190}, !- Handle
  Surface 8,                              !- Name
  Wall,                                   !- Surface Type
  ,                                       !- Construction Name
  {7e3c5b84-07a9-4709-a31b-9e03dcc8e586}, !- Space Name
  Outdoors,                               !- Outside Boundary Condition
  ,                                       !- Outside Boundary Condition Object
  SunExposed,                             !- Sun Exposure
  WindExposed,                            !- Wind Exposure
  ,                                       !- View Factor to Ground
  ,                                       !- Number of Vertices
  0, 6.81553519541936, 2.4384,            !- X,Y,Z Vertex 1 {m}
  0, 6.81553519541936, 0,                 !- X,Y,Z Vertex 2 {m}
  0, 3.048, 0,                            !- X,Y,Z Vertex 3 {m}
  0, 3.048, 2.4384;                       !- X,Y,Z Vertex 4 {m}

OS:Surface,
  {09e33b53-5c0a-4bd8-917d-709c0d8bda96}, !- Handle
  Surface 9,                              !- Name
  Wall,                                   !- Surface Type
  ,                                       !- Construction Name
  {7e3c5b84-07a9-4709-a31b-9e03dcc8e586}, !- Space Name
  Outdoors,                               !- Outside Boundary Condition
  ,                                       !- Outside Boundary Condition Object
  SunExposed,                             !- Sun Exposure
  WindExposed,                            !- Wind Exposure
  ,                                       !- View Factor to Ground
  ,                                       !- Number of Vertices
  13.6310703908387, 6.81553519541936, 2.4384, !- X,Y,Z Vertex 1 {m}
  13.6310703908387, 6.81553519541936, 0,  !- X,Y,Z Vertex 2 {m}
  0, 6.81553519541936, 0,                 !- X,Y,Z Vertex 3 {m}
  0, 6.81553519541936, 2.4384;            !- X,Y,Z Vertex 4 {m}

OS:Surface,
  {6b8afe9d-f234-48fe-a208-474bd9748a2e}, !- Handle
  Surface 10,                             !- Name
  Wall,                                   !- Surface Type
  ,                                       !- Construction Name
  {7e3c5b84-07a9-4709-a31b-9e03dcc8e586}, !- Space Name
  Outdoors,                               !- Outside Boundary Condition
  ,                                       !- Outside Boundary Condition Object
  SunExposed,                             !- Sun Exposure
  WindExposed,                            !- Wind Exposure
  ,                                       !- View Factor to Ground
  ,                                       !- Number of Vertices
  13.6310703908387, 0, 2.4384,            !- X,Y,Z Vertex 1 {m}
  13.6310703908387, 0, 0,                 !- X,Y,Z Vertex 2 {m}
  13.6310703908387, 6.81553519541936, 0,  !- X,Y,Z Vertex 3 {m}
  13.6310703908387, 6.81553519541936, 2.4384; !- X,Y,Z Vertex 4 {m}

OS:Surface,
  {194ccf01-aefe-42f8-9208-7c41655960c0}, !- Handle
  Surface 11,                             !- Name
  Wall,                                   !- Surface Type
  ,                                       !- Construction Name
  {7e3c5b84-07a9-4709-a31b-9e03dcc8e586}, !- Space Name
  Outdoors,                               !- Outside Boundary Condition
  ,                                       !- Outside Boundary Condition Object
  SunExposed,                             !- Sun Exposure
  WindExposed,                            !- Wind Exposure
  ,                                       !- View Factor to Ground
  ,                                       !- Number of Vertices
  6.096, 0, 2.4384,                       !- X,Y,Z Vertex 1 {m}
  6.096, 0, 0,                            !- X,Y,Z Vertex 2 {m}
  13.6310703908387, 0, 0,                 !- X,Y,Z Vertex 3 {m}
  13.6310703908387, 0, 2.4384;            !- X,Y,Z Vertex 4 {m}

OS:Surface,
  {8ecb4fc1-0ac0-4ec8-9bcb-0ce457224cb2}, !- Handle
  Surface 12,                             !- Name
  Wall,                                   !- Surface Type
  ,                                       !- Construction Name
  {7e3c5b84-07a9-4709-a31b-9e03dcc8e586}, !- Space Name
  Surface,                                !- Outside Boundary Condition
  {7184c822-4540-4cb0-9d9e-e9225d893637}, !- Outside Boundary Condition Object
  NoSun,                                  !- Sun Exposure
  NoWind,                                 !- Wind Exposure
  ,                                       !- View Factor to Ground
  ,                                       !- Number of Vertices
  6.096, 3.048, 2.4384,                   !- X,Y,Z Vertex 1 {m}
  6.096, 3.048, 0,                        !- X,Y,Z Vertex 2 {m}
  6.096, 0, 0,                            !- X,Y,Z Vertex 3 {m}
  6.096, 0, 2.4384;                       !- X,Y,Z Vertex 4 {m}

OS:Surface,
  {9aa0f660-6558-42e8-aacd-dfa16351f479}, !- Handle
  Surface 13,                             !- Name
  Wall,                                   !- Surface Type
  ,                                       !- Construction Name
  {7e3c5b84-07a9-4709-a31b-9e03dcc8e586}, !- Space Name
  Surface,                                !- Outside Boundary Condition
  {5083d1f9-ba9c-46f7-9acd-1c3654e90760}, !- Outside Boundary Condition Object
  NoSun,                                  !- Sun Exposure
  NoWind,                                 !- Wind Exposure
  ,                                       !- View Factor to Ground
  ,                                       !- Number of Vertices
  0, 3.048, 2.4384,                       !- X,Y,Z Vertex 1 {m}
  0, 3.048, 0,                            !- X,Y,Z Vertex 2 {m}
  6.096, 3.048, 0,                        !- X,Y,Z Vertex 3 {m}
  6.096, 3.048, 2.4384;                   !- X,Y,Z Vertex 4 {m}

OS:Surface,
  {e0cefed7-3dd2-4481-932b-931ba4afd027}, !- Handle
  Surface 14,                             !- Name
  RoofCeiling,                            !- Surface Type
  ,                                       !- Construction Name
  {7e3c5b84-07a9-4709-a31b-9e03dcc8e586}, !- Space Name
  Surface,                                !- Outside Boundary Condition
  {7ecdd260-c760-4b60-8a2b-ca85679bf05e}, !- Outside Boundary Condition Object
  NoSun,                                  !- Sun Exposure
  NoWind,                                 !- Wind Exposure
  ,                                       !- View Factor to Ground
  ,                                       !- Number of Vertices
  13.6310703908387, 0, 2.4384,            !- X,Y,Z Vertex 1 {m}
  13.6310703908387, 6.81553519541936, 2.4384, !- X,Y,Z Vertex 2 {m}
  0, 6.81553519541936, 2.4384,            !- X,Y,Z Vertex 3 {m}
  0, 3.048, 2.4384,                       !- X,Y,Z Vertex 4 {m}
  6.096, 3.048, 2.4384,                   !- X,Y,Z Vertex 5 {m}
  6.096, 0, 2.4384;                       !- X,Y,Z Vertex 6 {m}

OS:Space,
  {3a5ee15e-e3cb-4b95-9b2e-d8c203f0d6c5}, !- Handle
  living space|story 2,                   !- Name
  ,                                       !- Space Type Name
  ,                                       !- Default Construction Set Name
  ,                                       !- Default Schedule Set Name
  -0,                                     !- Direction of Relative North {deg}
  0,                                      !- X Origin {m}