!- NOTE: Auto-generated from /test/osw_files/SFD_2000sqft_2story_SL_GRGTucked_UA.osw

OS:Version,
  {91a3260a-ee37-4b59-bb9e-6bcbacb0391d}, !- Handle
  2.4.0;                                  !- Version Identifier

OS:Building,
  {bf305633-c5a1-4881-9edf-ca5e1a8e1274}, !- Handle
  Building,                               !- Name
  ,                                       !- Building Sector Type
  ,                                       !- North Axis {deg}
  ,                                       !- Nominal Floor to Floor Height {m}
  ,                                       !- Space Type Name
  ,                                       !- Default Construction Set Name
  ,                                       !- Default Schedule Set Name
  2,                                      !- Standards Number of Stories
  2,                                      !- Standards Number of Above Ground Stories
  singlefamilydetached,                   !- Standards Building Type
  1;                                      !- Standards Number of Living Units

OS:YearDescription,
  {513d8dda-86cb-442a-b01c-1f7f0e0ac70e}; !- Handle

OS:SimulationControl,
  {2c487a4c-bac9-4ac5-b669-1e49d9da7c2b}, !- Handle
  ,                                       !- Do Zone Sizing Calculation
  ,                                       !- Do System Sizing Calculation
  ,                                       !- Do Plant Sizing Calculation
  No,                                     !- Run Simulation for Sizing Periods
  ;                                       !- Run Simulation for Weather File Run Periods

OS:Timestep,
  {4ebc9f1e-4707-402e-9844-67eb1ffbd522}, !- Handle
  6;                                      !- Number of Timesteps per Hour

OS:RunPeriod,
  {28df894d-6af9-4fb8-8f56-df1753344aa3}, !- Handle
  Run Period,                             !- Name
  1,                                      !- Begin Month
  1,                                      !- Begin Day of Month
  12,                                     !- End Month
  31,                                     !- End Day of Month
  ,                                       !- Use Weather File Holidays and Special Days
  ,                                       !- Use Weather File Daylight Saving Period
  ,                                       !- Apply Weekend Holiday Rule
  ,                                       !- Use Weather File Rain Indicators
  ,                                       !- Use Weather File Snow Indicators
  ;                                       !- Number of Times Runperiod to be Repeated

OS:Sizing:Parameters,
  {dde5af6f-7923-4600-a28a-7556673a0266}, !- Handle
  1.0,                                    !- Heating Sizing Factor
  1.0;                                    !- Cooling Sizing Factor

OS:ShadowCalculation,
  {ca758bea-4416-4626-9bba-3d8795c79bd6}, !- Handle
  20,                                     !- Calculation Frequency
  200;                                    !- Maximum Figures in Shadow Overlap Calculations

OS:SurfaceConvectionAlgorithm:Inside,
  {aaabfc36-718a-4ab0-b622-f186ebb45230}, !- Handle
  TARP;                                   !- Algorithm

OS:SurfaceConvectionAlgorithm:Outside,
  {9a0a9f6f-4bbd-4b12-a121-9492a1fcd7d6}, !- Handle
  DOE-2;                                  !- Algorithm

OS:HeatBalanceAlgorithm,
  {9d93e563-e1e0-46d7-9e39-d1c8aceb7212}, !- Handle
  ConductionTransferFunction,             !- Algorithm
  200;                                    !- Surface Temperature Upper Limit {C}

OS:ZoneCapacitanceMultiplier:ResearchSpecial,
  {6bfced16-b16f-47f6-8223-f7e267d75d19}, !- Handle
  ,                                       !- Temperature Capacity Multiplier
  15,                                     !- Humidity Capacity Multiplier
  ;                                       !- Carbon Dioxide Capacity Multiplier

OS:ThermalZone,
  {4b71b5f4-a2c3-44e4-b238-1b22d8b12225}, !- Handle
  living zone,                            !- Name
  ,                                       !- Multiplier
  ,                                       !- Ceiling Height {m}
  ,                                       !- Volume {m3}
  ,                                       !- Floor Area {m2}
  ,                                       !- Zone Inside Convection Algorithm
  ,                                       !- Zone Outside Convection Algorithm
  ,                                       !- Zone Conditioning Equipment List Name
  {3bce192c-1200-4d3c-8bec-ad727c8e620f}, !- Zone Air Inlet Port List
  {7dceadf0-898e-4dd6-b6ba-f0b947df3578}, !- Zone Air Exhaust Port List
  {862eb445-cd42-44fc-aed2-552b6c19a242}, !- Zone Air Node Name
  ,                                       !- Zone Return Air Node Name
  ,                                       !- Primary Daylighting Control Name
  ,                                       !- Fraction of Zone Controlled by Primary Daylighting Control
  ,                                       !- Secondary Daylighting Control Name
  ,                                       !- Fraction of Zone Controlled by Secondary Daylighting Control
  ,                                       !- Illuminance Map Name
  ,                                       !- Group Rendering Name
  ,                                       !- Thermostat Name
  No;                                     !- Use Ideal Air Loads

OS:Node,
  {d80b8ba9-9ec3-4878-a399-fff98a805030}, !- Handle
  Node 1,                                 !- Name
  {862eb445-cd42-44fc-aed2-552b6c19a242}, !- Inlet Port
  ;                                       !- Outlet Port

OS:Connection,
  {862eb445-cd42-44fc-aed2-552b6c19a242}, !- Handle
  {82f5e237-b6fc-46cc-8c9c-8c901a0d234a}, !- Name
  {4b71b5f4-a2c3-44e4-b238-1b22d8b12225}, !- Source Object
  11,                                     !- Outlet Port
  {d80b8ba9-9ec3-4878-a399-fff98a805030}, !- Target Object
  2;                                      !- Inlet Port

OS:PortList,
  {3bce192c-1200-4d3c-8bec-ad727c8e620f}, !- Handle
  {1d1d6361-79ce-4442-8a24-eb65bc76948e}, !- Name
  {4b71b5f4-a2c3-44e4-b238-1b22d8b12225}; !- HVAC Component

OS:PortList,
  {7dceadf0-898e-4dd6-b6ba-f0b947df3578}, !- Handle
  {20997f6f-02dd-41ab-a34b-89314e699ec5}, !- Name
  {4b71b5f4-a2c3-44e4-b238-1b22d8b12225}; !- HVAC Component

OS:Sizing:Zone,
  {f4390c94-6b0f-41c2-b90c-d32aea41685e}, !- Handle
  {4b71b5f4-a2c3-44e4-b238-1b22d8b12225}, !- Zone or ZoneList Name
  SupplyAirTemperature,                   !- Zone Cooling Design Supply Air Temperature Input Method
  14,                                     !- Zone Cooling Design Supply Air Temperature {C}
  11.11,                                  !- Zone Cooling Design Supply Air Temperature Difference {deltaC}
  SupplyAirTemperature,                   !- Zone Heating Design Supply Air Temperature Input Method
  40,                                     !- Zone Heating Design Supply Air Temperature {C}
  11.11,                                  !- Zone Heating Design Supply Air Temperature Difference {deltaC}
  0.0085,                                 !- Zone Cooling Design Supply Air Humidity Ratio {kg-H2O/kg-air}
  0.008,                                  !- Zone Heating Design Supply Air Humidity Ratio {kg-H2O/kg-air}
  ,                                       !- Zone Heating Sizing Factor
  ,                                       !- Zone Cooling Sizing Factor
  DesignDay,                              !- Cooling Design Air Flow Method
  ,                                       !- Cooling Design Air Flow Rate {m3/s}
  ,                                       !- Cooling Minimum Air Flow per Zone Floor Area {m3/s-m2}
  ,                                       !- Cooling Minimum Air Flow {m3/s}
  ,                                       !- Cooling Minimum Air Flow Fraction
  DesignDay,                              !- Heating Design Air Flow Method
  ,                                       !- Heating Design Air Flow Rate {m3/s}
  ,                                       !- Heating Maximum Air Flow per Zone Floor Area {m3/s-m2}
  ,                                       !- Heating Maximum Air Flow {m3/s}
  ,                                       !- Heating Maximum Air Flow Fraction
  ,                                       !- Design Zone Air Distribution Effectiveness in Cooling Mode
  ,                                       !- Design Zone Air Distribution Effectiveness in Heating Mode
  No,                                     !- Account for Dedicated Outdoor Air System
  NeutralSupplyAir,                       !- Dedicated Outdoor Air System Control Strategy
  autosize,                               !- Dedicated Outdoor Air Low Setpoint Temperature for Design {C}
  autosize;                               !- Dedicated Outdoor Air High Setpoint Temperature for Design {C}

OS:ZoneHVAC:EquipmentList,
  {beecd643-7acd-4eab-8a77-89aba7457d69}, !- Handle
  Zone HVAC Equipment List 1,             !- Name
  {4b71b5f4-a2c3-44e4-b238-1b22d8b12225}; !- Thermal Zone

OS:ThermalZone,
  {e7f79c8b-b142-4a36-805c-2446e5f28b2d}, !- Handle
  garage zone,                            !- Name
  ,                                       !- Multiplier
  ,                                       !- Ceiling Height {m}
  ,                                       !- Volume {m3}
  ,                                       !- Floor Area {m2}
  ,                                       !- Zone Inside Convection Algorithm
  ,                                       !- Zone Outside Convection Algorithm
  ,                                       !- Zone Conditioning Equipment List Name
  {77fe0889-68a3-439b-8ad2-5814b92d1318}, !- Zone Air Inlet Port List
  {82dfb62c-faa5-4426-8ec1-a6eb42bdc78a}, !- Zone Air Exhaust Port List
  {19a28cde-945c-4dfc-822a-b39700782423}, !- Zone Air Node Name
  ,                                       !- Zone Return Air Node Name
  ,                                       !- Primary Daylighting Control Name
  ,                                       !- Fraction of Zone Controlled by Primary Daylighting Control
  ,                                       !- Secondary Daylighting Control Name
  ,                                       !- Fraction of Zone Controlled by Secondary Daylighting Control
  ,                                       !- Illuminance Map Name
  ,                                       !- Group Rendering Name
  ,                                       !- Thermostat Name
  No;                                     !- Use Ideal Air Loads

OS:Node,
  {8dbc46ea-a2a3-460a-8382-4dea739730e7}, !- Handle
  Node 2,                                 !- Name
  {19a28cde-945c-4dfc-822a-b39700782423}, !- Inlet Port
  ;                                       !- Outlet Port

OS:Connection,
  {19a28cde-945c-4dfc-822a-b39700782423}, !- Handle
  {82cc63fd-51ee-4494-8c3b-343fbe578aed}, !- Name
  {e7f79c8b-b142-4a36-805c-2446e5f28b2d}, !- Source Object
  11,                                     !- Outlet Port
  {8dbc46ea-a2a3-460a-8382-4dea739730e7}, !- Target Object
  2;                                      !- Inlet Port

OS:PortList,
  {77fe0889-68a3-439b-8ad2-5814b92d1318}, !- Handle
  {5e8ab955-d352-4310-a2ac-f943d96499b2}, !- Name
  {e7f79c8b-b142-4a36-805c-2446e5f28b2d}; !- HVAC Component

OS:PortList,
  {82dfb62c-faa5-4426-8ec1-a6eb42bdc78a}, !- Handle
  {de927ac2-0fca-41a7-b61a-dcc73894e576}, !- Name
  {e7f79c8b-b142-4a36-805c-2446e5f28b2d}; !- HVAC Component

OS:Sizing:Zone,
  {e33bec51-0375-42e0-9485-6a6c457555ec}, !- Handle
  {e7f79c8b-b142-4a36-805c-2446e5f28b2d}, !- Zone or ZoneList Name
  SupplyAirTemperature,                   !- Zone Cooling Design Supply Air Temperature Input Method
  14,                                     !- Zone Cooling Design Supply Air Temperature {C}
  11.11,                                  !- Zone Cooling Design Supply Air Temperature Difference {deltaC}
  SupplyAirTemperature,                   !- Zone Heating Design Supply Air Temperature Input Method
  40,                                     !- Zone Heating Design Supply Air Temperature {C}
  11.11,                                  !- Zone Heating Design Supply Air Temperature Difference {deltaC}
  0.0085,                                 !- Zone Cooling Design Supply Air Humidity Ratio {kg-H2O/kg-air}
  0.008,                                  !- Zone Heating Design Supply Air Humidity Ratio {kg-H2O/kg-air}
  ,                                       !- Zone Heating Sizing Factor
  ,                                       !- Zone Cooling Sizing Factor
  DesignDay,                              !- Cooling Design Air Flow Method
  ,                                       !- Cooling Design Air Flow Rate {m3/s}
  ,                                       !- Cooling Minimum Air Flow per Zone Floor Area {m3/s-m2}
  ,                                       !- Cooling Minimum Air Flow {m3/s}
  ,                                       !- Cooling Minimum Air Flow Fraction
  DesignDay,                              !- Heating Design Air Flow Method
  ,                                       !- Heating Design Air Flow Rate {m3/s}
  ,                                       !- Heating Maximum Air Flow per Zone Floor Area {m3/s-m2}
  ,                                       !- Heating Maximum Air Flow {m3/s}
  ,                                       !- Heating Maximum Air Flow Fraction
  ,                                       !- Design Zone Air Distribution Effectiveness in Cooling Mode
  ,                                       !- Design Zone Air Distribution Effectiveness in Heating Mode
  No,                                     !- Account for Dedicated Outdoor Air System
  NeutralSupplyAir,                       !- Dedicated Outdoor Air System Control Strategy
  autosize,                               !- Dedicated Outdoor Air Low Setpoint Temperature for Design {C}
  autosize;                               !- Dedicated Outdoor Air High Setpoint Temperature for Design {C}

OS:ZoneHVAC:EquipmentList,
  {1760c761-1aa8-4c6b-ab71-834f8ad3f7cd}, !- Handle
  Zone HVAC Equipment List 2,             !- Name
  {e7f79c8b-b142-4a36-805c-2446e5f28b2d}; !- Thermal Zone

OS:Space,
  {1cd32a04-3bbf-4dc5-a346-922d5c93f2c1}, !- Handle
  garage space,                           !- Name
  ,                                       !- Space Type Name
  ,                                       !- Default Construction Set Name
  ,                                       !- Default Schedule Set Name
  -0,                                     !- Direction of Relative North {deg}
  0,                                      !- X Origin {m}
  0,                                      !- Y Origin {m}
  0,                                      !- Z Origin {m}
  ,                                       !- Building Story Name
  {e7f79c8b-b142-4a36-805c-2446e5f28b2d}, !- Thermal Zone Name
  ,                                       !- Part of Total Floor Area
  ,                                       !- Design Specification Outdoor Air Object Name
  {58888eac-6138-4611-9b51-726a43fdae7a}; !- Building Unit Name

OS:Surface,
  {7d4507f6-df21-4238-9f24-404738161800}, !- Handle
  Surface 1,                              !- Name
  Floor,                                  !- Surface Type
  ,                                       !- Construction Name
  {1cd32a04-3bbf-4dc5-a346-922d5c93f2c1}, !- Space Name
  Ground,                                 !- Outside Boundary Condition
  ,                                       !- Outside Boundary Condition Object
  NoSun,                                  !- Sun Exposure
  NoWind,                                 !- Wind Exposure
  ,                                       !- View Factor to Ground
  ,                                       !- Number of Vertices
  8.83608947200625, 0, 0,                 !- X,Y,Z Vertex 1 {m}
  8.83608947200625, 6.096, 0,             !- X,Y,Z Vertex 2 {m}
  14.9320894720063, 6.096, 0,             !- X,Y,Z Vertex 3 {m}
  14.9320894720063, 0, 0;                 !- X,Y,Z Vertex 4 {m}

OS:Surface,
  {bb2f0c66-05ba-460f-916c-105e19ab45c6}, !- Handle
  Surface 2,                              !- Name
  Wall,                                   !- Surface Type
  ,                                       !- Construction Name
  {1cd32a04-3bbf-4dc5-a346-922d5c93f2c1}, !- Space Name
  Surface,                                !- Outside Boundary Condition
  {d43cdfe1-d5e3-4176-b9d9-4844a4d85cfa}, !- Outside Boundary Condition Object
  NoSun,                                  !- Sun Exposure
  NoWind,                                 !- Wind Exposure
  ,                                       !- View Factor to Ground
  ,                                       !- Number of Vertices
  8.83608947200625, 6.096, 2.4384,        !- X,Y,Z Vertex 1 {m}
  8.83608947200625, 6.096, 0,             !- X,Y,Z Vertex 2 {m}
  8.83608947200625, 0, 0,                 !- X,Y,Z Vertex 3 {m}
  8.83608947200625, 0, 2.4384;            !- X,Y,Z Vertex 4 {m}

OS:Surface,
  {0cbb465d-81cf-4bc1-a736-0c3cbd67eaa8}, !- Handle
  Surface 3,                              !- Name
  Wall,                                   !- Surface Type
  ,                                       !- Construction Name
  {1cd32a04-3bbf-4dc5-a346-922d5c93f2c1}, !- Space Name
  Surface,                                !- Outside Boundary Condition
  {2e63bbf0-e662-42be-979d-67964471f5b2}, !- Outside Boundary Condition Object
  NoSun,                                  !- Sun Exposure
  NoWind,                                 !- Wind Exposure
  ,                                       !- View Factor to Ground
  ,                                       !- Number of Vertices
  14.9320894720063, 6.096, 2.4384,        !- X,Y,Z Vertex 1 {m}
  14.9320894720063, 6.096, 0,             !- X,Y,Z Vertex 2 {m}
  8.83608947200625, 6.096, 0,             !- X,Y,Z Vertex 3 {m}
  8.83608947200625, 6.096, 2.4384;        !- X,Y,Z Vertex 4 {m}

OS:Surface,
  {e47fcba4-2eb2-4c4b-9df2-0cfdd5bcd670}, !- Handle
  Surface 4,                              !- Name
  Wall,                                   !- Surface Type
  ,                                       !- Construction Name
  {1cd32a04-3bbf-4dc5-a346-922d5c93f2c1}, !- Space Name
  Outdoors,                               !- Outside Boundary Condition
  ,                                       !- Outside Boundary Condition Object
  SunExposed,                             !- Sun Exposure
  WindExposed,                            !- Wind Exposure
  ,                                       !- View Factor to Ground
  ,                                       !- Number of Vertices
  14.9320894720063, 0, 2.4384,            !- X,Y,Z Vertex 1 {m}
  14.9320894720063, 0, 0,                 !- X,Y,Z Vertex 2 {m}
  14.9320894720063, 6.096, 0,             !- X,Y,Z Vertex 3 {m}
  14.9320894720063, 6.096, 2.4384;        !- X,Y,Z Vertex 4 {m}

OS:Surface,
  {19bd952c-8a0e-4c97-b3d1-7c58229c4cc9}, !- Handle
  Surface 5,                              !- Name
  Wall,                                   !- Surface Type
  ,                                       !- Construction Name
  {1cd32a04-3bbf-4dc5-a346-922d5c93f2c1}, !- Space Name
  Outdoors,                               !- Outside Boundary Condition
  ,                                       !- Outside Boundary Condition Object
  SunExposed,                             !- Sun Exposure
  WindExposed,                            !- Wind Exposure
  ,                                       !- View Factor to Ground
  ,                                       !- Number of Vertices
  8.83608947200625, 0, 2.4384,            !- X,Y,Z Vertex 1 {m}
  8.83608947200625, 0, 0,                 !- X,Y,Z Vertex 2 {m}
  14.9320894720063, 0, 0,                 !- X,Y,Z Vertex 3 {m}
  14.9320894720063, 0, 2.4384;            !- X,Y,Z Vertex 4 {m}

OS:Surface,
  {53fdec7f-612a-4c52-a14a-591cdee784f4}, !- Handle
  Surface 6,                              !- Name
  RoofCeiling,                            !- Surface Type
  ,                                       !- Construction Name
  {1cd32a04-3bbf-4dc5-a346-922d5c93f2c1}, !- Space Name
  Surface,                                !- Outside Boundary Condition
  {9c6b5916-ebc2-43dc-a861-7fbe5a3b76d8}, !- Outside Boundary Condition Object
  NoSun,                                  !- Sun Exposure
  NoWind,                                 !- Wind Exposure
  ,                                       !- View Factor to Ground
  ,                                       !- Number of Vertices
  14.9320894720063, 0, 2.4384,            !- X,Y,Z Vertex 1 {m}
  14.9320894720063, 6.096, 2.4384,        !- X,Y,Z Vertex 2 {m}
  8.83608947200625, 6.096, 2.4384,        !- X,Y,Z Vertex 3 {m}
  8.83608947200625, 0, 2.4384;            !- X,Y,Z Vertex 4 {m}

OS:Space,
  {0d53fac7-ee81-48ec-9d69-39944b9600f5}, !- Handle
  living space,                           !- Name
  ,                                       !- Space Type Name
  ,                                       !- Default Construction Set Name
  ,                                       !- Default Schedule Set Name
  -0,                                     !- Direction of Relative North {deg}
  0,                                      !- X Origin {m}
  0,                                      !- Y Origin {m}
  0,                                      !- Z Origin {m}
  ,                                       !- Building Story Name
  {4b71b5f4-a2c3-44e4-b238-1b22d8b12225}, !- Thermal Zone Name
  ,                                       !- Part of Total Floor Area
  ,                                       !- Design Specification Outdoor Air Object Name
  {58888eac-6138-4611-9b51-726a43fdae7a}; !- Building Unit Name

OS:Surface,
  {ec82051b-b105-48ee-b65f-f4761a93ba92}, !- Handle
  Surface 7,                              !- Name
  Floor,                                  !- Surface Type
  ,                                       !- Construction Name
  {0d53fac7-ee81-48ec-9d69-39944b9600f5}, !- Space Name
  Ground,                                 !- Outside Boundary Condition
  ,                                       !- Outside Boundary Condition Object
  NoSun,                                  !- Sun Exposure
  NoWind,                                 !- Wind Exposure
  ,                                       !- View Factor to Ground
  ,                                       !- Number of Vertices
  0, 0, 0,                                !- X,Y,Z Vertex 1 {m}
  0, 7.46604473600313, 0,                 !- X,Y,Z Vertex 2 {m}
  14.9320894720063, 7.46604473600313, 0,  !- X,Y,Z Vertex 3 {m}
  14.9320894720063, 6.096, 0,             !- X,Y,Z Vertex 4 {m}
  8.83608947200625, 6.096, 0,             !- X,Y,Z Vertex 5 {m}
  8.83608947200625, 0, 0;                 !- X,Y,Z Vertex 6 {m}

OS:Surface,
  {85852a34-ee52-4e1c-8c7b-4506b649e5b4}, !- Handle
  Surface 8,                              !- Name
  Wall,                                   !- Surface Type
  ,                                       !- Construction Name
  {0d53fac7-ee81-48ec-9d69-39944b9600f5}, !- Space Name
  Outdoors,                               !- Outside Boundary Condition
  ,                                       !- Outside Boundary Condition Object
  SunExposed,                             !- Sun Exposure
  WindExposed,                            !- Wind Exposure
  ,                                       !- View Factor to Ground
  ,                                       !- Number of Vertices
  0, 7.46604473600313, 2.4384,            !- X,Y,Z Vertex 1 {m}
  0, 7.46604473600313, 0,                 !- X,Y,Z Vertex 2 {m}
  0, 0, 0,                                !- X,Y,Z Vertex 3 {m}
  0, 0, 2.4384;                           !- X,Y,Z Vertex 4 {m}

OS:Surface,
  {3ddda9dc-f918-4936-bc44-f6daf9ca7f34}, !- Handle
  Surface 9,                              !- Name
  Wall,                                   !- Surface Type
  ,                                       !- Construction Name
  {0d53fac7-ee81-48ec-9d69-39944b9600f5}, !- Space Name
  Outdoors,                               !- Outside Boundary Condition
  ,                                       !- Outside Boundary Condition Object
  SunExposed,                             !- Sun Exposure
  WindExposed,                            !- Wind Exposure
  ,                                       !- View Factor to Ground
  ,                                       !- Number of Vertices
  14.9320894720063, 7.46604473600313, 2.4384, !- X,Y,Z Vertex 1 {m}
  14.9320894720063, 7.46604473600313, 0,  !- X,Y,Z Vertex 2 {m}
  0, 7.46604473600313, 0,                 !- X,Y,Z Vertex 3 {m}
  0, 7.46604473600313, 2.4384;            !- X,Y,Z Vertex 4 {m}

OS:Surface,
  {d5fbfbc9-7149-4ee5-9101-8fd7b0e98028}, !- Handle
  Surface 10,                             !- Name
  Wall,                                   !- Surface Type
  ,                                       !- Construction Name
  {0d53fac7-ee81-48ec-9d69-39944b9600f5}, !- Space Name
  Outdoors,                               !- Outside Boundary Condition
  ,                                       !- Outside Boundary Condition Object
  SunExposed,                             !- Sun Exposure
  WindExposed,                            !- Wind Exposure
  ,                                       !- View Factor to Ground
  ,                                       !- Number of Vertices
  14.9320894720063, 6.096, 2.4384,        !- X,Y,Z Vertex 1 {m}
  14.9320894720063, 6.096, 0,             !- X,Y,Z Vertex 2 {m}
  14.9320894720063, 7.46604473600313, 0,  !- X,Y,Z Vertex 3 {m}
  14.9320894720063, 7.46604473600313, 2.4384; !- X,Y,Z Vertex 4 {m}

OS:Surface,
  {2e63bbf0-e662-42be-979d-67964471f5b2}, !- Handle
  Surface 11,                             !- Name
  Wall,                                   !- Surface Type
  ,                                       !- Construction Name
  {0d53fac7-ee81-48ec-9d69-39944b9600f5}, !- Space Name
  Surface,                                !- Outside Boundary Condition
  {0cbb465d-81cf-4bc1-a736-0c3cbd67eaa8}, !- Outside Boundary Condition Object
  NoSun,                                  !- Sun Exposure
  NoWind,                                 !- Wind Exposure
  ,                                       !- View Factor to Ground
  ,                                       !- Number of Vertices
  8.83608947200625, 6.096, 2.4384,        !- X,Y,Z Vertex 1 {m}
  8.83608947200625, 6.096, 0,             !- X,Y,Z Vertex 2 {m}
  14.9320894720063, 6.096, 0,             !- X,Y,Z Vertex 3 {m}
  14.9320894720063, 6.096, 2.4384;        !- X,Y,Z Vertex 4 {m}

OS:Surface,
  {d43cdfe1-d5e3-4176-b9d9-4844a4d85cfa}, !- Handle
  Surface 12,                             !- Name
  Wall,                                   !- Surface Type
  ,                                       !- Construction Name
  {0d53fac7-ee81-48ec-9d69-39944b9600f5}, !- Space Name
  Surface,                                !- Outside Boundary Condition
  {bb2f0c66-05ba-460f-916c-105e19ab45c6}, !- Outside Boundary Condition Object
  NoSun,                                  !- Sun Exposure
  NoWind,                                 !- Wind Exposure
  ,                                       !- View Factor to Ground
  ,                                       !- Number of Vertices
  8.83608947200625, 0, 2.4384,            !- X,Y,Z Vertex 1 {m}
  8.83608947200625, 0, 0,                 !- X,Y,Z Vertex 2 {m}
  8.83608947200625, 6.096, 0,             !- X,Y,Z Vertex 3 {m}
  8.83608947200625, 6.096, 2.4384;        !- X,Y,Z Vertex 4 {m}

OS:Surface,
  {74aafd43-afbd-446a-84f6-ec65d745cc23}, !- Handle
  Surface 13,                             !- Name
  Wall,                                   !- Surface Type
  ,                                       !- Construction Name
  {0d53fac7-ee81-48ec-9d69-39944b9600f5}, !- Space Name
  Outdoors,                               !- Outside Boundary Condition
  ,                                       !- Outside Boundary Condition Object
  SunExposed,                             !- Sun Exposure
  WindExposed,                            !- Wind Exposure
  ,                                       !- View Factor to Ground
  ,                                       !- Number of Vertices
  0, 0, 2.4384,                           !- X,Y,Z Vertex 1 {m}
  0, 0, 0,                                !- X,Y,Z Vertex 2 {m}
  8.83608947200625, 0, 0,                 !- X,Y,Z Vertex 3 {m}
  8.83608947200625, 0, 2.4384;            !- X,Y,Z Vertex 4 {m}

OS:Surface,
  {bbd55fec-ea6e-4fe9-bf22-daa72a9d2d8f}, !- Handle
  Surface 14,                             !- Name
  RoofCeiling,                            !- Surface Type
  ,                                       !- Construction Name
  {0d53fac7-ee81-48ec-9d69-39944b9600f5}, !- Space Name
  Surface,                                !- Outside Boundary Condition
  {d91885a1-7282-4230-961f-52a610c75636}, !- Outside Boundary Condition Object
  NoSun,                                  !- Sun Exposure
  NoWind,                                 !- Wind Exposure
  ,                                       !- View Factor to Ground
  ,                                       !- Number of Vertices
  8.83608947200625, 0, 2.4384,            !- X,Y,Z Vertex 1 {m}
  8.83608947200625, 6.096, 2.4384,        !- X,Y,Z Vertex 2 {m}
  14.9320894720063, 6.096, 2.4384,        !- X,Y,Z Vertex 3 {m}
  14.9320894720063, 7.46604473600313, 2.4384, !- X,Y,Z Vertex 4 {m}
  0, 7.46604473600313, 2.4384,            !- X,Y,Z Vertex 5 {m}
  0, 0, 2.4384;                           !- X,Y,Z Vertex 6 {m}

OS:Space,
  {35a23586-90ca-40f2-b89a-742f5db96699}, !- Handle
  living space|story 2,                   !- Name
  ,                                       !- Space Type Name
  ,                                       !- Default Construction Set Name
  ,                                       !- Default Schedule Set Name
  -0,                                     !- Direction of Relative North {deg}
  0,                                      !- X Origin {m}