!- NOTE: Auto-generated from /test/osw_files/SFD_2000sqft_1story_SL_GRG_FlatRoof.osw

OS:Version,
  {adfa3a33-c967-46cb-89e6-c7b27d288068}, !- Handle
  2.3.1;                                  !- Version Identifier

OS:Building,
  {bf305633-c5a1-4881-9edf-ca5e1a8e1274}, !- Handle
  Building,                               !- Name
  ,                                       !- Building Sector Type
  ,                                       !- North Axis {deg}
  ,                                       !- Nominal Floor to Floor Height {m}
  ,                                       !- Space Type Name
  ,                                       !- Default Construction Set Name
  ,                                       !- Default Schedule Set Name
  1,                                      !- Standards Number of Stories
  1,                                      !- Standards Number of Above Ground Stories
  singlefamilydetached,                   !- Standards Building Type
  1;                                      !- Standards Number of Living Units

OS:YearDescription,
  {513d8dda-86cb-442a-b01c-1f7f0e0ac70e}; !- Handle

OS:SimulationControl,
  {2c487a4c-bac9-4ac5-b669-1e49d9da7c2b}, !- Handle
  ,                                       !- Do Zone Sizing Calculation
  ,                                       !- Do System Sizing Calculation
  ,                                       !- Do Plant Sizing Calculation
  No,                                     !- Run Simulation for Sizing Periods
  ;                                       !- Run Simulation for Weather File Run Periods

OS:Timestep,
  {4ebc9f1e-4707-402e-9844-67eb1ffbd522}, !- Handle
  6;                                      !- Number of Timesteps per Hour

OS:RunPeriod,
  {28df894d-6af9-4fb8-8f56-df1753344aa3}, !- Handle
  Run Period,                             !- Name
  1,                                      !- Begin Month
  1,                                      !- Begin Day of Month
  12,                                     !- End Month
  31,                                     !- End Day of Month
  ,                                       !- Use Weather File Holidays and Special Days
  ,                                       !- Use Weather File Daylight Saving Period
  ,                                       !- Apply Weekend Holiday Rule
  ,                                       !- Use Weather File Rain Indicators
  ,                                       !- Use Weather File Snow Indicators
  ;                                       !- Number of Times Runperiod to be Repeated

OS:Sizing:Parameters,
  {dde5af6f-7923-4600-a28a-7556673a0266}, !- Handle
  1.0,                                    !- Heating Sizing Factor
  1.0;                                    !- Cooling Sizing Factor

OS:ShadowCalculation,
  {ca758bea-4416-4626-9bba-3d8795c79bd6}, !- Handle
  20,                                     !- Calculation Frequency
  200;                                    !- Maximum Figures in Shadow Overlap Calculations

OS:SurfaceConvectionAlgorithm:Inside,
  {aaabfc36-718a-4ab0-b622-f186ebb45230}, !- Handle
  TARP;                                   !- Algorithm

OS:SurfaceConvectionAlgorithm:Outside,
  {9a0a9f6f-4bbd-4b12-a121-9492a1fcd7d6}, !- Handle
  DOE-2;                                  !- Algorithm

OS:HeatBalanceAlgorithm,
  {9d93e563-e1e0-46d7-9e39-d1c8aceb7212}, !- Handle
  ConductionTransferFunction,             !- Algorithm
  200;                                    !- Surface Temperature Upper Limit {C}

OS:ZoneCapacitanceMultiplier:ResearchSpecial,
  {6bfced16-b16f-47f6-8223-f7e267d75d19}, !- Handle
  ,                                       !- Temperature Capacity Multiplier
  15,                                     !- Humidity Capacity Multiplier
  ;                                       !- Carbon Dioxide Capacity Multiplier

OS:ThermalZone,
  {4cd8582e-4676-4262-9e1a-ca163a10f2c4}, !- Handle
  living zone,                            !- Name
  ,                                       !- Multiplier
  ,                                       !- Ceiling Height {m}
  ,                                       !- Volume {m3}
  ,                                       !- Floor Area {m2}
  ,                                       !- Zone Inside Convection Algorithm
  ,                                       !- Zone Outside Convection Algorithm
  ,                                       !- Zone Conditioning Equipment List Name
  {c3d7b2ec-3ecc-4c1a-a01f-b2377b8301fd}, !- Zone Air Inlet Port List
  {43cae82f-63c9-4a34-acdc-eaf913606fc1}, !- Zone Air Exhaust Port List
  {3e0b7c70-87b9-4c9d-b503-f3e61314e004}, !- Zone Air Node Name
  ,                                       !- Zone Return Air Node Name
  ,                                       !- Primary Daylighting Control Name
  ,                                       !- Fraction of Zone Controlled by Primary Daylighting Control
  ,                                       !- Secondary Daylighting Control Name
  ,                                       !- Fraction of Zone Controlled by Secondary Daylighting Control
  ,                                       !- Illuminance Map Name
  ,                                       !- Group Rendering Name
  ,                                       !- Thermostat Name
  No;                                     !- Use Ideal Air Loads

OS:Node,
  {c8305cf8-cbdb-4e7f-bc12-e9044ee117f9}, !- Handle
  Node 1,                                 !- Name
  {3e0b7c70-87b9-4c9d-b503-f3e61314e004}, !- Inlet Port
  ;                                       !- Outlet Port

OS:Connection,
  {3e0b7c70-87b9-4c9d-b503-f3e61314e004}, !- Handle
  {65f0913c-4ec5-417a-8e2c-de4dc3194291}, !- Name
  {4cd8582e-4676-4262-9e1a-ca163a10f2c4}, !- Source Object
  11,                                     !- Outlet Port
  {c8305cf8-cbdb-4e7f-bc12-e9044ee117f9}, !- Target Object
  2;                                      !- Inlet Port

OS:PortList,
  {c3d7b2ec-3ecc-4c1a-a01f-b2377b8301fd}, !- Handle
  {7dcbf18b-6fb4-447b-8844-8a319e5116aa}, !- Name
  {4cd8582e-4676-4262-9e1a-ca163a10f2c4}; !- HVAC Component

OS:PortList,
  {43cae82f-63c9-4a34-acdc-eaf913606fc1}, !- Handle
  {1f01e6aa-9aaf-46e3-b343-51e4af6c052e}, !- Name
  {4cd8582e-4676-4262-9e1a-ca163a10f2c4}; !- HVAC Component

OS:Sizing:Zone,
  {3ceffeb0-4b72-4770-8194-9e8ec06d6620}, !- Handle
  {4cd8582e-4676-4262-9e1a-ca163a10f2c4}, !- Zone or ZoneList Name
  SupplyAirTemperature,                   !- Zone Cooling Design Supply Air Temperature Input Method
  14,                                     !- Zone Cooling Design Supply Air Temperature {C}
  11.11,                                  !- Zone Cooling Design Supply Air Temperature Difference {deltaC}
  SupplyAirTemperature,                   !- Zone Heating Design Supply Air Temperature Input Method
  40,                                     !- Zone Heating Design Supply Air Temperature {C}
  11.11,                                  !- Zone Heating Design Supply Air Temperature Difference {deltaC}
  0.0085,                                 !- Zone Cooling Design Supply Air Humidity Ratio {kg-H2O/kg-air}
  0.008,                                  !- Zone Heating Design Supply Air Humidity Ratio {kg-H2O/kg-air}
  ,                                       !- Zone Heating Sizing Factor
  ,                                       !- Zone Cooling Sizing Factor
  DesignDay,                              !- Cooling Design Air Flow Method
  ,                                       !- Cooling Design Air Flow Rate {m3/s}
  ,                                       !- Cooling Minimum Air Flow per Zone Floor Area {m3/s-m2}
  ,                                       !- Cooling Minimum Air Flow {m3/s}
  ,                                       !- Cooling Minimum Air Flow Fraction
  DesignDay,                              !- Heating Design Air Flow Method
  ,                                       !- Heating Design Air Flow Rate {m3/s}
  ,                                       !- Heating Maximum Air Flow per Zone Floor Area {m3/s-m2}
  ,                                       !- Heating Maximum Air Flow {m3/s}
  ,                                       !- Heating Maximum Air Flow Fraction
  ,                                       !- Design Zone Air Distribution Effectiveness in Cooling Mode
  ,                                       !- Design Zone Air Distribution Effectiveness in Heating Mode
  No,                                     !- Account for Dedicated Outdoor Air System
  NeutralSupplyAir,                       !- Dedicated Outdoor Air System Control Strategy
  autosize,                               !- Dedicated Outdoor Air Low Setpoint Temperature for Design {C}
  autosize;                               !- Dedicated Outdoor Air High Setpoint Temperature for Design {C}

OS:ZoneHVAC:EquipmentList,
  {03c36b90-5429-46d8-afcb-c013f3dca790}, !- Handle
  Zone HVAC Equipment List 1,             !- Name
  {4cd8582e-4676-4262-9e1a-ca163a10f2c4}; !- Thermal Zone

OS:ThermalZone,
  {096aeb34-1de6-4119-ba73-ab2182ef9c79}, !- Handle
  garage zone,                            !- Name
  ,                                       !- Multiplier
  ,                                       !- Ceiling Height {m}
  ,                                       !- Volume {m3}
  ,                                       !- Floor Area {m2}
  ,                                       !- Zone Inside Convection Algorithm
  ,                                       !- Zone Outside Convection Algorithm
  ,                                       !- Zone Conditioning Equipment List Name
  {f5df17b8-f2e0-4607-b40a-1cb7458a9ce4}, !- Zone Air Inlet Port List
  {a9669ff3-71c1-461b-924d-c87f0d616fc1}, !- Zone Air Exhaust Port List
  {fa1e0c49-9ac6-4c6d-9569-57f2074e7b01}, !- Zone Air Node Name
  ,                                       !- Zone Return Air Node Name
  ,                                       !- Primary Daylighting Control Name
  ,                                       !- Fraction of Zone Controlled by Primary Daylighting Control
  ,                                       !- Secondary Daylighting Control Name
  ,                                       !- Fraction of Zone Controlled by Secondary Daylighting Control
  ,                                       !- Illuminance Map Name
  ,                                       !- Group Rendering Name
  ,                                       !- Thermostat Name
  No;                                     !- Use Ideal Air Loads

OS:Node,
  {8eb00e22-d97b-4afd-9de1-6b536df7c93b}, !- Handle
  Node 2,                                 !- Name
  {fa1e0c49-9ac6-4c6d-9569-57f2074e7b01}, !- Inlet Port
  ;                                       !- Outlet Port

OS:Connection,
  {fa1e0c49-9ac6-4c6d-9569-57f2074e7b01}, !- Handle
  {1f528d60-a695-46ad-a11b-b7be59185b73}, !- Name
  {096aeb34-1de6-4119-ba73-ab2182ef9c79}, !- Source Object
  11,                                     !- Outlet Port
  {8eb00e22-d97b-4afd-9de1-6b536df7c93b}, !- Target Object
  2;                                      !- Inlet Port

OS:PortList,
  {f5df17b8-f2e0-4607-b40a-1cb7458a9ce4}, !- Handle
  {425c1f61-9d21-44ac-8262-85e941b20f11}, !- Name
  {096aeb34-1de6-4119-ba73-ab2182ef9c79}; !- HVAC Component

OS:PortList,
  {a9669ff3-71c1-461b-924d-c87f0d616fc1}, !- Handle
  {33153481-b89f-4a10-aa97-5f942334a70c}, !- Name
  {096aeb34-1de6-4119-ba73-ab2182ef9c79}; !- HVAC Component

OS:Sizing:Zone,
  {7fcc602d-19dd-4ea5-be19-bd2415f3c4a0}, !- Handle
  {096aeb34-1de6-4119-ba73-ab2182ef9c79}, !- Zone or ZoneList Name
  SupplyAirTemperature,                   !- Zone Cooling Design Supply Air Temperature Input Method
  14,                                     !- Zone Cooling Design Supply Air Temperature {C}
  11.11,                                  !- Zone Cooling Design Supply Air Temperature Difference {deltaC}
  SupplyAirTemperature,                   !- Zone Heating Design Supply Air Temperature Input Method
  40,                                     !- Zone Heating Design Supply Air Temperature {C}
  11.11,                                  !- Zone Heating Design Supply Air Temperature Difference {deltaC}
  0.0085,                                 !- Zone Cooling Design Supply Air Humidity Ratio {kg-H2O/kg-air}
  0.008,                                  !- Zone Heating Design Supply Air Humidity Ratio {kg-H2O/kg-air}
  ,                                       !- Zone Heating Sizing Factor
  ,                                       !- Zone Cooling Sizing Factor
  DesignDay,                              !- Cooling Design Air Flow Method
  ,                                       !- Cooling Design Air Flow Rate {m3/s}
  ,                                       !- Cooling Minimum Air Flow per Zone Floor Area {m3/s-m2}
  ,                                       !- Cooling Minimum Air Flow {m3/s}
  ,                                       !- Cooling Minimum Air Flow Fraction
  DesignDay,                              !- Heating Design Air Flow Method
  ,                                       !- Heating Design Air Flow Rate {m3/s}
  ,                                       !- Heating Maximum Air Flow per Zone Floor Area {m3/s-m2}
  ,                                       !- Heating Maximum Air Flow {m3/s}
  ,                                       !- Heating Maximum Air Flow Fraction
  ,                                       !- Design Zone Air Distribution Effectiveness in Cooling Mode
  ,                                       !- Design Zone Air Distribution Effectiveness in Heating Mode
  No,                                     !- Account for Dedicated Outdoor Air System
  NeutralSupplyAir,                       !- Dedicated Outdoor Air System Control Strategy
  autosize,                               !- Dedicated Outdoor Air Low Setpoint Temperature for Design {C}
  autosize;                               !- Dedicated Outdoor Air High Setpoint Temperature for Design {C}

OS:ZoneHVAC:EquipmentList,
  {ce600327-a4c8-456b-8a3e-029292ec1c39}, !- Handle
  Zone HVAC Equipment List 2,             !- Name
  {096aeb34-1de6-4119-ba73-ab2182ef9c79}; !- Thermal Zone

OS:Space,
  {f7e75ff2-46a2-4e0a-b0c1-71de68f3206d}, !- Handle
  garage space,                           !- Name
  ,                                       !- Space Type Name
  ,                                       !- Default Construction Set Name
  ,                                       !- Default Schedule Set Name
  -0,                                     !- Direction of Relative North {deg}
  0,                                      !- X Origin {m}
  0,                                      !- Y Origin {m}
  0,                                      !- Z Origin {m}
  ,                                       !- Building Story Name
  {096aeb34-1de6-4119-ba73-ab2182ef9c79}, !- Thermal Zone Name
  ,                                       !- Part of Total Floor Area
  ,                                       !- Design Specification Outdoor Air Object Name
  {7adfa8ee-ea73-483a-b0b3-12eb35735c38}; !- Building Unit Name

OS:Surface,
  {7d995648-a942-49d6-9ab1-930f66d4a4a2}, !- Handle
  Surface 1,                              !- Name
  Floor,                                  !- Surface Type
  ,                                       !- Construction Name
  {f7e75ff2-46a2-4e0a-b0c1-71de68f3206d}, !- Space Name
  Ground,                                 !- Outside Boundary Condition
  ,                                       !- Outside Boundary Condition Object
  NoSun,                                  !- Sun Exposure
  NoWind,                                 !- Wind Exposure
  ,                                       !- View Factor to Ground
  ,                                       !- Number of Vertices
  14.1221447220065, -3.048, 0,            !- X,Y,Z Vertex 1 {m}
  14.1221447220065, 3.048, 0,             !- X,Y,Z Vertex 2 {m}
  20.2181447220065, 3.048, 0,             !- X,Y,Z Vertex 3 {m}
  20.2181447220065, -3.048, 0;            !- X,Y,Z Vertex 4 {m}

OS:Surface,
  {bb826587-3026-43fc-9c50-50bc1dd93372}, !- Handle
  Surface 2,                              !- Name
  Wall,                                   !- Surface Type
  ,                                       !- Construction Name
  {f7e75ff2-46a2-4e0a-b0c1-71de68f3206d}, !- Space Name
  Surface,                                !- Outside Boundary Condition
  {78ed7ee6-554d-4ac7-abe1-687e91aaa68d}, !- Outside Boundary Condition Object
  NoSun,                                  !- Sun Exposure
  NoWind,                                 !- Wind Exposure
  ,                                       !- View Factor to Ground
  ,                                       !- Number of Vertices
  14.1221447220065, 3.048, 2.4384,        !- X,Y,Z Vertex 1 {m}
  14.1221447220065, 3.048, 0,             !- X,Y,Z Vertex 2 {m}
  14.1221447220065, 0, 0,                 !- X,Y,Z Vertex 3 {m}
  14.1221447220065, 0, 2.4384;            !- X,Y,Z Vertex 4 {m}

OS:Surface,
  {b3c2b518-3fa5-4a4d-9e15-e291d1812375}, !- Handle
  Surface 3,                              !- Name
  Wall,                                   !- Surface Type
  ,                                       !- Construction Name
  {f7e75ff2-46a2-4e0a-b0c1-71de68f3206d}, !- Space Name
  Surface,                                !- Outside Boundary Condition
  {79d72d44-af68-49ba-bb10-11c027beb0ca}, !- Outside Boundary Condition Object
  NoSun,                                  !- Sun Exposure
  NoWind,                                 !- Wind Exposure
  ,                                       !- View Factor to Ground
  ,                                       !- Number of Vertices
  20.2181447220065, 3.048, 2.4384,        !- X,Y,Z Vertex 1 {m}
  20.2181447220065, 3.048, 0,             !- X,Y,Z Vertex 2 {m}
  14.1221447220065, 3.048, 0,             !- X,Y,Z Vertex 3 {m}
  14.1221447220065, 3.048, 2.4384;        !- X,Y,Z Vertex 4 {m}

OS:Surface,
  {89135d02-5cec-4ba7-a37c-b15fbb8d6d35}, !- Handle
  Surface 4,                              !- Name
  Wall,                                   !- Surface Type
  ,                                       !- Construction Name
  {f7e75ff2-46a2-4e0a-b0c1-71de68f3206d}, !- Space Name
  Outdoors,                               !- Outside Boundary Condition
  ,                                       !- Outside Boundary Condition Object
  SunExposed,                             !- Sun Exposure
  WindExposed,                            !- Wind Exposure
  ,                                       !- View Factor to Ground
  ,                                       !- Number of Vertices
  20.2181447220065, -3.048, 2.4384,       !- X,Y,Z Vertex 1 {m}
  20.2181447220065, -3.048, 0,            !- X,Y,Z Vertex 2 {m}
  20.2181447220065, 3.048, 0,             !- X,Y,Z Vertex 3 {m}
  20.2181447220065, 3.048, 2.4384;        !- X,Y,Z Vertex 4 {m}

OS:Surface,
  {1dfcc8c2-f2fa-439b-9d60-168e5508c289}, !- Handle
  Surface 5,                              !- Name
  Wall,                                   !- Surface Type
  ,                                       !- Construction Name
  {f7e75ff2-46a2-4e0a-b0c1-71de68f3206d}, !- Space Name
  Outdoors,                               !- Outside Boundary Condition
  ,                                       !- Outside Boundary Condition Object
  SunExposed,                             !- Sun Exposure
  WindExposed,                            !- Wind Exposure
  ,                                       !- View Factor to Ground
  ,                                       !- Number of Vertices
  14.1221447220065, -3.048, 2.4384,       !- X,Y,Z Vertex 1 {m}
  14.1221447220065, -3.048, 0,            !- X,Y,Z Vertex 2 {m}
  20.2181447220065, -3.048, 0,            !- X,Y,Z Vertex 3 {m}
  20.2181447220065, -3.048, 2.4384;       !- X,Y,Z Vertex 4 {m}

OS:Surface,
  {e6bc568a-bea3-4abd-ba10-ebc6fe07f83e}, !- Handle
  Surface 6,                              !- Name
  RoofCeiling,                            !- Surface Type
  ,                                       !- Construction Name
  {f7e75ff2-46a2-4e0a-b0c1-71de68f3206d}, !- Space Name
  Outdoors,                               !- Outside Boundary Condition
  ,                                       !- Outside Boundary Condition Object
  SunExposed,                             !- Sun Exposure
  WindExposed,                            !- Wind Exposure
  ,                                       !- View Factor to Ground
  ,                                       !- Number of Vertices
  20.2181447220065, -3.048, 2.4384,       !- X,Y,Z Vertex 1 {m}
  20.2181447220065, 3.048, 2.4384,        !- X,Y,Z Vertex 2 {m}
  14.1221447220065, 3.048, 2.4384,        !- X,Y,Z Vertex 3 {m}
  14.1221447220065, -3.048, 2.4384;       !- X,Y,Z Vertex 4 {m}

OS:Space,
  {bd823c1e-fef4-4e4f-9458-f9ba55e35c6b}, !- Handle
  living space,                           !- Name
  ,                                       !- Space Type Name
  ,                                       !- Default Construction Set Name
  ,                                       !- Default Schedule Set Name
  -0,                                     !- Direction of Relative North {deg}
  0,                                      !- X Origin {m}
  0,                                      !- Y Origin {m}
  0,                                      !- Z Origin {m}
  ,                                       !- Building Story Name
  {4cd8582e-4676-4262-9e1a-ca163a10f2c4}, !- Thermal Zone Name
  ,                                       !- Part of Total Floor Area
  ,                                       !- Design Specification Outdoor Air Object Name
  {7adfa8ee-ea73-483a-b0b3-12eb35735c38}; !- Building Unit Name

OS:Surface,
  {a3bf099b-4b05-4de0-ad79-6f159ade07b5}, !- Handle
  Surface 7,                              !- Name
  Floor,                                  !- Surface Type
  ,                                       !- Construction Name
  {bd823c1e-fef4-4e4f-9458-f9ba55e35c6b}, !- Space Name
  Ground,                                 !- Outside Boundary Condition
  ,                                       !- Outside Boundary Condition Object
  NoSun,                                  !- Sun Exposure
  NoWind,                                 !- Wind Exposure
  ,                                       !- View Factor to Ground
  ,                                       !- Number of Vertices
  0, 0, 0,                                !- X,Y,Z Vertex 1 {m}
  0, 10.1090723610033, 0,                 !- X,Y,Z Vertex 2 {m}
  20.2181447220065, 10.1090723610033, 0,  !- X,Y,Z Vertex 3 {m}
  20.2181447220065, 3.048, 0,             !- X,Y,Z Vertex 4 {m}
  14.1221447220065, 3.048, 0,             !- X,Y,Z Vertex 5 {m}
  14.1221447220065, 0, 0;                 !- X,Y,Z Vertex 6 {m}

OS:Surface,
  {ecc7eadc-b4ec-4f70-8351-99d0c13208a9}, !- Handle
  Surface 8,                              !- Name
  Wall,                                   !- Surface Type
  ,                                       !- Construction Name
  {bd823c1e-fef4-4e4f-9458-f9ba55e35c6b}, !- Space Name
  Outdoors,                               !- Outside Boundary Condition
  ,                                       !- Outside Boundary Condition Object
  SunExposed,                             !- Sun Exposure
  WindExposed,                            !- Wind Exposure
  ,                                       !- View Factor to Ground
  ,                                       !- Number of Vertices
  0, 10.1090723610033, 2.4384,            !- X,Y,Z Vertex 1 {m}
  0, 10.1090723610033, 0,                 !- X,Y,Z Vertex 2 {m}
  0, 0, 0,                                !- X,Y,Z Vertex 3 {m}
  0, 0, 2.4384;                           !- X,Y,Z Vertex 4 {m}

OS:Surface,
  {e0242237-15b7-4483-bec2-90b728439bda}, !- Handle
  Surface 9,                              !- Name
  Wall,                                   !- Surface Type
  ,                                       !- Construction Name
  {bd823c1e-fef4-4e4f-9458-f9ba55e35c6b}, !- Space Name
  Outdoors,                               !- Outside Boundary Condition
  ,                                       !- Outside Boundary Condition Object
  SunExposed,                             !- Sun Exposure
  WindExposed,                            !- Wind Exposure
  ,                                       !- View Factor to Ground
  ,                                       !- Number of Vertices
  20.2181447220065, 10.1090723610033, 2.4384, !- X,Y,Z Vertex 1 {m}
  20.2181447220065, 10.1090723610033, 0,  !- X,Y,Z Vertex 2 {m}
  0, 10.1090723610033, 0,                 !- X,Y,Z Vertex 3 {m}
  0, 10.1090723610033, 2.4384;            !- X,Y,Z Vertex 4 {m}

OS:Surface,
  {94d2f817-f258-44db-bcd3-ce3c1bbf0f91}, !- Handle
  Surface 10,                             !- Name
  Wall,                                   !- Surface Type
  ,                                       !- Construction Name
  {bd823c1e-fef4-4e4f-9458-f9ba55e35c6b}, !- Space Name
  Outdoors,                               !- Outside Boundary Condition
  ,                                       !- Outside Boundary Condition Object
  SunExposed,                             !- Sun Exposure
  WindExposed,                            !- Wind Exposure
  ,                                       !- View Factor to Ground
  ,                                       !- Number of Vertices
  20.2181447220065, 3.048, 2.4384,        !- X,Y,Z Vertex 1 {m}
  20.2181447220065, 3.048, 0,             !- X,Y,Z Vertex 2 {m}
  20.2181447220065, 10.1090723610033, 0,  !- X,Y,Z Vertex 3 {m}
  20.2181447220065, 10.1090723610033, 2.4384; !- X,Y,Z Vertex 4 {m}

OS:Surface,
  {79d72d44-af68-49ba-bb10-11c027beb0ca}, !- Handle
  Surface 11,                             !- Name
  Wall,                                   !- Surface Type
  ,                                       !- Construction Name
  {bd823c1e-fef4-4e4f-9458-f9ba55e35c6b}, !- Space Name
  Surface,                                !- Outside Boundary Condition
  {b3c2b518-3fa5-4a4d-9e15-e291d1812375}, !- Outside Boundary Condition Object
  NoSun,                                  !- Sun Exposure
  NoWind,                                 !- Wind Exposure
  ,                                       !- View Factor to Ground
  ,                                       !- Number of Vertices
  14.1221447220065, 3.048, 2.4384,        !- X,Y,Z Vertex 1 {m}
  14.1221447220065, 3.048, 0,             !- X,Y,Z Vertex 2 {m}
  20.2181447220065, 3.048, 0,             !- X,Y,Z Vertex 3 {m}
  20.2181447220065, 3.048, 2.4384;        !- X,Y,Z Vertex 4 {m}

OS:Surface,
  {78ed7ee6-554d-4ac7-abe1-687e91aaa68d}, !- Handle
  Surface 12,                             !- Name
  Wall,                                   !- Surface Type
  ,                                       !- Construction Name
  {bd823c1e-fef4-4e4f-9458-f9ba55e35c6b}, !- Space Name
  Surface,                                !- Outside Boundary Condition
  {bb826587-3026-43fc-9c50-50bc1dd93372}, !- Outside Boundary Condition Object
  NoSun,                                  !- Sun Exposure
  NoWind,                                 !- Wind Exposure
  ,                                       !- View Factor to Ground
  ,                                       !- Number of Vertices
  14.1221447220065, 0, 2.4384,            !- X,Y,Z Vertex 1 {m}
  14.1221447220065, 0, 0,                 !- X,Y,Z Vertex 2 {m}
  14.1221447220065, 3.048, 0,             !- X,Y,Z Vertex 3 {m}
  14.1221447220065, 3.048, 2.4384;        !- X,Y,Z Vertex 4 {m}

OS:Surface,
  {a7bd5280-294b-4594-be31-c70c914bf6a6}, !- Handle
  Surface 13,                             !- Name
  Wall,                                   !- Surface Type
  ,                                       !- Construction Name
  {bd823c1e-fef4-4e4f-9458-f9ba55e35c6b}, !- Space Name
  Outdoors,                               !- Outside Boundary Condition
  ,                                       !- Outside Boundary Condition Object
  SunExposed,                             !- Sun Exposure
  WindExposed,                            !- Wind Exposure
  ,                                       !- View Factor to Ground
  ,                                       !- Number of Vertices
  0, 0, 2.4384,                           !- X,Y,Z Vertex 1 {m}
  0, 0, 0,                                !- X,Y,Z Vertex 2 {m}
  14.1221447220065, 0, 0,                 !- X,Y,Z Vertex 3 {m}
  14.1221447220065, 0, 2.4384;            !- X,Y,Z Vertex 4 {m}

OS:Surface,
  {78761637-ff09-49e4-add0-791da976288c}, !- Handle
  Surface 14,                             !- Name
  RoofCeiling,                            !- Surface Type
  ,                                       !- Construction Name
  {bd823c1e-fef4-4e4f-9458-f9ba55e35c6b}, !- Space Name
  Outdoors,                               !- Outside Boundary Condition
  ,                                       !- Outside Boundary Condition Object
  SunExposed,                             !- Sun Exposure
  WindExposed,                            !- Wind Exposure
  ,                                       !- View Factor to Ground
  ,                                       !- Number of Vertices
  14.1221447220065, 0, 2.4384,            !- X,Y,Z Vertex 1 {m}
  14.1221447220065, 3.048, 2.4384,        !- X,Y,Z Vertex 2 {m}
  20.2181447220065, 3.048, 2.4384,        !- X,Y,Z Vertex 3 {m}
  20.2181447220065, 10.1090723610033, 2.4384, !- X,Y,Z Vertex 4 {m}
  0, 10.1090723610033, 2.4384,            !- X,Y,Z Vertex 5 {m}
  0, 0, 2.4384;                           !- X,Y,Z Vertex 6 {m}

OS:Surface,
  {0c1b076e-e787-46a2-a9a5-defd4b76d573}, !- Handle
  Surface 15,                             !- Name
  Wall,                                   !- Surface Type
  ,                                       !- Construction Name
  {f7e75ff2-46a2-4e0a-b0c1-71de68f3206d}, !- Space Name
  Outdoors,                               !- Outside Boundary Condition
  ,                                       !- Outside Boundary Condition Object
  SunExposed,                             !- Sun Exposure