!- NOTE: Auto-generated from /test/osw_files/SFD_2000sqft_2story_SL_GRGLeft_FlatRoof.osw

OS:Version,
  {df01f6fb-4730-492d-92fd-0de76dad098a}, !- Handle
  2.4.0;                                  !- Version Identifier

OS:Building,
  {bf305633-c5a1-4881-9edf-ca5e1a8e1274}, !- Handle
  Building,                               !- Name
  ,                                       !- Building Sector Type
  ,                                       !- North Axis {deg}
  ,                                       !- Nominal Floor to Floor Height {m}
  ,                                       !- Space Type Name
  ,                                       !- Default Construction Set Name
  ,                                       !- Default Schedule Set Name
  2,                                      !- Standards Number of Stories
  2,                                      !- Standards Number of Above Ground Stories
  singlefamilydetached,                   !- Standards Building Type
  1;                                      !- Standards Number of Living Units

OS:YearDescription,
  {513d8dda-86cb-442a-b01c-1f7f0e0ac70e}; !- Handle

OS:SimulationControl,
  {2c487a4c-bac9-4ac5-b669-1e49d9da7c2b}, !- Handle
  ,                                       !- Do Zone Sizing Calculation
  ,                                       !- Do System Sizing Calculation
  ,                                       !- Do Plant Sizing Calculation
  No,                                     !- Run Simulation for Sizing Periods
  ;                                       !- Run Simulation for Weather File Run Periods

OS:Timestep,
  {4ebc9f1e-4707-402e-9844-67eb1ffbd522}, !- Handle
  6;                                      !- Number of Timesteps per Hour

OS:RunPeriod,
  {28df894d-6af9-4fb8-8f56-df1753344aa3}, !- Handle
  Run Period,                             !- Name
  1,                                      !- Begin Month
  1,                                      !- Begin Day of Month
  12,                                     !- End Month
  31,                                     !- End Day of Month
  ,                                       !- Use Weather File Holidays and Special Days
  ,                                       !- Use Weather File Daylight Saving Period
  ,                                       !- Apply Weekend Holiday Rule
  ,                                       !- Use Weather File Rain Indicators
  ,                                       !- Use Weather File Snow Indicators
  ;                                       !- Number of Times Runperiod to be Repeated

OS:Sizing:Parameters,
  {dde5af6f-7923-4600-a28a-7556673a0266}, !- Handle
  1.0,                                    !- Heating Sizing Factor
  1.0;                                    !- Cooling Sizing Factor

OS:ShadowCalculation,
  {ca758bea-4416-4626-9bba-3d8795c79bd6}, !- Handle
  20,                                     !- Calculation Frequency
  200;                                    !- Maximum Figures in Shadow Overlap Calculations

OS:SurfaceConvectionAlgorithm:Inside,
  {aaabfc36-718a-4ab0-b622-f186ebb45230}, !- Handle
  TARP;                                   !- Algorithm

OS:SurfaceConvectionAlgorithm:Outside,
  {9a0a9f6f-4bbd-4b12-a121-9492a1fcd7d6}, !- Handle
  DOE-2;                                  !- Algorithm

OS:HeatBalanceAlgorithm,
  {9d93e563-e1e0-46d7-9e39-d1c8aceb7212}, !- Handle
  ConductionTransferFunction,             !- Algorithm
  200;                                    !- Surface Temperature Upper Limit {C}

OS:ZoneCapacitanceMultiplier:ResearchSpecial,
  {6bfced16-b16f-47f6-8223-f7e267d75d19}, !- Handle
  ,                                       !- Temperature Capacity Multiplier
  15,                                     !- Humidity Capacity Multiplier
  ;                                       !- Carbon Dioxide Capacity Multiplier

OS:ThermalZone,
  {a334b2c5-f244-4d7b-a065-773b4367d857}, !- Handle
  living zone,                            !- Name
  ,                                       !- Multiplier
  ,                                       !- Ceiling Height {m}
  ,                                       !- Volume {m3}
  ,                                       !- Floor Area {m2}
  ,                                       !- Zone Inside Convection Algorithm
  ,                                       !- Zone Outside Convection Algorithm
  ,                                       !- Zone Conditioning Equipment List Name
  {ca1e65b2-12f7-4942-9b4b-2601dc16a28d}, !- Zone Air Inlet Port List
  {6516e396-6156-412f-8bc4-d47ce1900ed3}, !- Zone Air Exhaust Port List
  {4cad5604-d77f-4630-8608-6f0c3db0ecdc}, !- Zone Air Node Name
  ,                                       !- Zone Return Air Node Name
  ,                                       !- Primary Daylighting Control Name
  ,                                       !- Fraction of Zone Controlled by Primary Daylighting Control
  ,                                       !- Secondary Daylighting Control Name
  ,                                       !- Fraction of Zone Controlled by Secondary Daylighting Control
  ,                                       !- Illuminance Map Name
  ,                                       !- Group Rendering Name
  ,                                       !- Thermostat Name
  No;                                     !- Use Ideal Air Loads

OS:Node,
  {b60f2202-eaea-43cc-a68e-39444e1f4f42}, !- Handle
  Node 1,                                 !- Name
  {4cad5604-d77f-4630-8608-6f0c3db0ecdc}, !- Inlet Port
  ;                                       !- Outlet Port

OS:Connection,
  {4cad5604-d77f-4630-8608-6f0c3db0ecdc}, !- Handle
  {7ea6659a-a78b-45bb-98a2-e10e3b46e779}, !- Name
  {a334b2c5-f244-4d7b-a065-773b4367d857}, !- Source Object
  11,                                     !- Outlet Port
  {b60f2202-eaea-43cc-a68e-39444e1f4f42}, !- Target Object
  2;                                      !- Inlet Port

OS:PortList,
  {ca1e65b2-12f7-4942-9b4b-2601dc16a28d}, !- Handle
  {ab89fffa-1497-4982-8d7f-09a17a4cd18d}, !- Name
  {a334b2c5-f244-4d7b-a065-773b4367d857}; !- HVAC Component

OS:PortList,
  {6516e396-6156-412f-8bc4-d47ce1900ed3}, !- Handle
  {af6a191f-4bbd-40fb-9809-0ffa17c05583}, !- Name
  {a334b2c5-f244-4d7b-a065-773b4367d857}; !- HVAC Component

OS:Sizing:Zone,
  {00e0e12c-90c2-47c2-b4a4-b50d51539ab4}, !- Handle
  {a334b2c5-f244-4d7b-a065-773b4367d857}, !- Zone or ZoneList Name
  SupplyAirTemperature,                   !- Zone Cooling Design Supply Air Temperature Input Method
  14,                                     !- Zone Cooling Design Supply Air Temperature {C}
  11.11,                                  !- Zone Cooling Design Supply Air Temperature Difference {deltaC}
  SupplyAirTemperature,                   !- Zone Heating Design Supply Air Temperature Input Method
  40,                                     !- Zone Heating Design Supply Air Temperature {C}
  11.11,                                  !- Zone Heating Design Supply Air Temperature Difference {deltaC}
  0.0085,                                 !- Zone Cooling Design Supply Air Humidity Ratio {kg-H2O/kg-air}
  0.008,                                  !- Zone Heating Design Supply Air Humidity Ratio {kg-H2O/kg-air}
  ,                                       !- Zone Heating Sizing Factor
  ,                                       !- Zone Cooling Sizing Factor
  DesignDay,                              !- Cooling Design Air Flow Method
  ,                                       !- Cooling Design Air Flow Rate {m3/s}
  ,                                       !- Cooling Minimum Air Flow per Zone Floor Area {m3/s-m2}
  ,                                       !- Cooling Minimum Air Flow {m3/s}
  ,                                       !- Cooling Minimum Air Flow Fraction
  DesignDay,                              !- Heating Design Air Flow Method
  ,                                       !- Heating Design Air Flow Rate {m3/s}
  ,                                       !- Heating Maximum Air Flow per Zone Floor Area {m3/s-m2}
  ,                                       !- Heating Maximum Air Flow {m3/s}
  ,                                       !- Heating Maximum Air Flow Fraction
  ,                                       !- Design Zone Air Distribution Effectiveness in Cooling Mode
  ,                                       !- Design Zone Air Distribution Effectiveness in Heating Mode
  No,                                     !- Account for Dedicated Outdoor Air System
  NeutralSupplyAir,                       !- Dedicated Outdoor Air System Control Strategy
  autosize,                               !- Dedicated Outdoor Air Low Setpoint Temperature for Design {C}
  autosize;                               !- Dedicated Outdoor Air High Setpoint Temperature for Design {C}

OS:ZoneHVAC:EquipmentList,
  {c301098e-514c-4297-9d4e-9bcc26285b52}, !- Handle
  Zone HVAC Equipment List 1,             !- Name
  {a334b2c5-f244-4d7b-a065-773b4367d857}; !- Thermal Zone

OS:ThermalZone,
  {29fff5a2-ad81-4b5b-960f-2d229198d133}, !- Handle
  garage zone,                            !- Name
  ,                                       !- Multiplier
  ,                                       !- Ceiling Height {m}
  ,                                       !- Volume {m3}
  ,                                       !- Floor Area {m2}
  ,                                       !- Zone Inside Convection Algorithm
  ,                                       !- Zone Outside Convection Algorithm
  ,                                       !- Zone Conditioning Equipment List Name
  {3bdc70cb-8026-401f-a186-e1f19baa8411}, !- Zone Air Inlet Port List
  {ec979b4b-933f-4e92-a99e-5d40d16a0251}, !- Zone Air Exhaust Port List
  {c1d42cf0-9c32-49bd-816a-c30fe051e987}, !- Zone Air Node Name
  ,                                       !- Zone Return Air Node Name
  ,                                       !- Primary Daylighting Control Name
  ,                                       !- Fraction of Zone Controlled by Primary Daylighting Control
  ,                                       !- Secondary Daylighting Control Name
  ,                                       !- Fraction of Zone Controlled by Secondary Daylighting Control
  ,                                       !- Illuminance Map Name
  ,                                       !- Group Rendering Name
  ,                                       !- Thermostat Name
  No;                                     !- Use Ideal Air Loads

OS:Node,
  {9f50cc5c-4087-4508-8c7b-500eba9bc7fd}, !- Handle
  Node 2,                                 !- Name
  {c1d42cf0-9c32-49bd-816a-c30fe051e987}, !- Inlet Port
  ;                                       !- Outlet Port

OS:Connection,
  {c1d42cf0-9c32-49bd-816a-c30fe051e987}, !- Handle
  {25d70683-4656-4eab-8ba9-5761e45ca744}, !- Name
  {29fff5a2-ad81-4b5b-960f-2d229198d133}, !- Source Object
  11,                                     !- Outlet Port
  {9f50cc5c-4087-4508-8c7b-500eba9bc7fd}, !- Target Object
  2;                                      !- Inlet Port

OS:PortList,
  {3bdc70cb-8026-401f-a186-e1f19baa8411}, !- Handle
  {5ee4d12c-0321-4958-b833-0ac0509496c1}, !- Name
  {29fff5a2-ad81-4b5b-960f-2d229198d133}; !- HVAC Component

OS:PortList,
  {ec979b4b-933f-4e92-a99e-5d40d16a0251}, !- Handle
  {9ccf6e98-77a6-4ab7-ba9c-dc291be82115}, !- Name
  {29fff5a2-ad81-4b5b-960f-2d229198d133}; !- HVAC Component

OS:Sizing:Zone,
  {cad5aaa5-fc4a-421a-ae32-d8ed5a2dbb53}, !- Handle
  {29fff5a2-ad81-4b5b-960f-2d229198d133}, !- Zone or ZoneList Name
  SupplyAirTemperature,                   !- Zone Cooling Design Supply Air Temperature Input Method
  14,                                     !- Zone Cooling Design Supply Air Temperature {C}
  11.11,                                  !- Zone Cooling Design Supply Air Temperature Difference {deltaC}
  SupplyAirTemperature,                   !- Zone Heating Design Supply Air Temperature Input Method
  40,                                     !- Zone Heating Design Supply Air Temperature {C}
  11.11,                                  !- Zone Heating Design Supply Air Temperature Difference {deltaC}
  0.0085,                                 !- Zone Cooling Design Supply Air Humidity Ratio {kg-H2O/kg-air}
  0.008,                                  !- Zone Heating Design Supply Air Humidity Ratio {kg-H2O/kg-air}
  ,                                       !- Zone Heating Sizing Factor
  ,                                       !- Zone Cooling Sizing Factor
  DesignDay,                              !- Cooling Design Air Flow Method
  ,                                       !- Cooling Design Air Flow Rate {m3/s}
  ,                                       !- Cooling Minimum Air Flow per Zone Floor Area {m3/s-m2}
  ,                                       !- Cooling Minimum Air Flow {m3/s}
  ,                                       !- Cooling Minimum Air Flow Fraction
  DesignDay,                              !- Heating Design Air Flow Method
  ,                                       !- Heating Design Air Flow Rate {m3/s}
  ,                                       !- Heating Maximum Air Flow per Zone Floor Area {m3/s-m2}
  ,                                       !- Heating Maximum Air Flow {m3/s}
  ,                                       !- Heating Maximum Air Flow Fraction
  ,                                       !- Design Zone Air Distribution Effectiveness in Cooling Mode
  ,                                       !- Design Zone Air Distribution Effectiveness in Heating Mode
  No,                                     !- Account for Dedicated Outdoor Air System
  NeutralSupplyAir,                       !- Dedicated Outdoor Air System Control Strategy
  autosize,                               !- Dedicated Outdoor Air Low Setpoint Temperature for Design {C}
  autosize;                               !- Dedicated Outdoor Air High Setpoint Temperature for Design {C}

OS:ZoneHVAC:EquipmentList,
  {75ffe342-daa1-4334-8c0d-3140d0276507}, !- Handle
  Zone HVAC Equipment List 2,             !- Name
  {29fff5a2-ad81-4b5b-960f-2d229198d133}; !- Thermal Zone

OS:Space,
  {7e723469-6ee1-4d96-b0f0-6db8798793c0}, !- Handle
  garage space,                           !- Name
  ,                                       !- Space Type Name
  ,                                       !- Default Construction Set Name
  ,                                       !- Default Schedule Set Name
  -0,                                     !- Direction of Relative North {deg}
  0,                                      !- X Origin {m}
  0,                                      !- Y Origin {m}
  0,                                      !- Z Origin {m}
  ,                                       !- Building Story Name
  {29fff5a2-ad81-4b5b-960f-2d229198d133}; !- Thermal Zone Name

OS:Surface,
  {fc246af5-b56b-487d-bd98-0b9bcfb74edd}, !- Handle
  Surface 1,                              !- Name
  Floor,                                  !- Surface Type
  ,                                       !- Construction Name
  {7e723469-6ee1-4d96-b0f0-6db8798793c0}, !- Space Name
  Ground,                                 !- Outside Boundary Condition
  ,                                       !- Outside Boundary Condition Object
  NoSun,                                  !- Sun Exposure
  NoWind,                                 !- Wind Exposure
  ,                                       !- View Factor to Ground
  ,                                       !- Number of Vertices
  0, -3.048, 0,                           !- X,Y,Z Vertex 1 {m}
  0, 3.048, 0,                            !- X,Y,Z Vertex 2 {m}
  6.096, 3.048, 0,                        !- X,Y,Z Vertex 3 {m}
  6.096, -3.048, 0;                       !- X,Y,Z Vertex 4 {m}

OS:Surface,
  {b52ee3bc-1737-419a-a1ce-223deaed052b}, !- Handle
  Surface 2,                              !- Name
  Wall,                                   !- Surface Type
  ,                                       !- Construction Name
  {7e723469-6ee1-4d96-b0f0-6db8798793c0}, !- Space Name
  Outdoors,                               !- Outside Boundary Condition
  ,                                       !- Outside Boundary Condition Object
  SunExposed,                             !- Sun Exposure
  WindExposed,                            !- Wind Exposure
  ,                                       !- View Factor to Ground
  ,                                       !- Number of Vertices
  0, 3.048, 2.4384,                       !- X,Y,Z Vertex 1 {m}
  0, 3.048, 0,                            !- X,Y,Z Vertex 2 {m}
  0, -3.048, 0,                           !- X,Y,Z Vertex 3 {m}
  0, -3.048, 2.4384;                      !- X,Y,Z Vertex 4 {m}

OS:Surface,
  {d7c2bbbe-eea3-48b9-9f62-5cd19d015431}, !- Handle
  Surface 3,                              !- Name
  Wall,                                   !- Surface Type
  ,                                       !- Construction Name
  {7e723469-6ee1-4d96-b0f0-6db8798793c0}, !- Space Name
  Surface,                                !- Outside Boundary Condition
  {709609b2-afbf-473a-b0e2-3e81e1b44f63}, !- Outside Boundary Condition Object
  NoSun,                                  !- Sun Exposure
  NoWind,                                 !- Wind Exposure
  ,                                       !- View Factor to Ground
  ,                                       !- Number of Vertices
  6.096, 3.048, 2.4384,                   !- X,Y,Z Vertex 1 {m}
  6.096, 3.048, 0,                        !- X,Y,Z Vertex 2 {m}
  0, 3.048, 0,                            !- X,Y,Z Vertex 3 {m}
  0, 3.048, 2.4384;                       !- X,Y,Z Vertex 4 {m}

OS:Surface,
  {3aece24e-61f8-4448-a5c8-958a298369ca}, !- Handle
  Surface 4,                              !- Name
  Wall,                                   !- Surface Type
  ,                                       !- Construction Name
  {7e723469-6ee1-4d96-b0f0-6db8798793c0}, !- Space Name
  Surface,                                !- Outside Boundary Condition
  {8c4481ff-9d6f-48f5-8ae9-c8cf14e4dcba}, !- Outside Boundary Condition Object
  NoSun,                                  !- Sun Exposure
  NoWind,                                 !- Wind Exposure
  ,                                       !- View Factor to Ground
  ,                                       !- Number of Vertices
  6.096, 0, 2.4384,                       !- X,Y,Z Vertex 1 {m}
  6.096, 0, 0,                            !- X,Y,Z Vertex 2 {m}
  6.096, 3.048, 0,                        !- X,Y,Z Vertex 3 {m}
  6.096, 3.048, 2.4384;                   !- X,Y,Z Vertex 4 {m}

OS:Surface,
  {694424e5-decd-4611-8712-c2f778f48b10}, !- Handle
  Surface 5,                              !- Name
  Wall,                                   !- Surface Type
  ,                                       !- Construction Name
  {7e723469-6ee1-4d96-b0f0-6db8798793c0}, !- Space Name
  Outdoors,                               !- Outside Boundary Condition
  ,                                       !- Outside Boundary Condition Object
  SunExposed,                             !- Sun Exposure
  WindExposed,                            !- Wind Exposure
  ,                                       !- View Factor to Ground
  ,                                       !- Number of Vertices
  0, -3.048, 2.4384,                      !- X,Y,Z Vertex 1 {m}
  0, -3.048, 0,                           !- X,Y,Z Vertex 2 {m}
  6.096, -3.048, 0,                       !- X,Y,Z Vertex 3 {m}
  6.096, -3.048, 2.4384;                  !- X,Y,Z Vertex 4 {m}

OS:Surface,
  {5d51da1a-6176-4065-99c1-03eba7234347}, !- Handle
  Surface 6,                              !- Name
  RoofCeiling,                            !- Surface Type
  ,                                       !- Construction Name
  {7e723469-6ee1-4d96-b0f0-6db8798793c0}, !- Space Name
  Surface,                                !- Outside Boundary Condition
  {db391c1a-695a-4ff3-b98c-7c6570de3526}, !- Outside Boundary Condition Object
  NoSun,                                  !- Sun Exposure
  NoWind,                                 !- Wind Exposure
  ,                                       !- View Factor to Ground
  ,                                       !- Number of Vertices
  6.096, -3.048, 2.4384,                  !- X,Y,Z Vertex 1 {m}
  6.096, 3.048, 2.4384,                   !- X,Y,Z Vertex 2 {m}
  0, 3.048, 2.4384,                       !- X,Y,Z Vertex 3 {m}
  0, -3.048, 2.4384;                      !- X,Y,Z Vertex 4 {m}

OS:Space,
  {1b1c13ae-4231-4cd9-ad1d-67dc8873274b}, !- Handle
  living space,                           !- Name
  ,                                       !- Space Type Name
  ,                                       !- Default Construction Set Name
  ,                                       !- Default Schedule Set Name
  -0,                                     !- Direction of Relative North {deg}
  0,                                      !- X Origin {m}
  0,                                      !- Y Origin {m}
  0,                                      !- Z Origin {m}
  ,                                       !- Building Story Name
  {a334b2c5-f244-4d7b-a065-773b4367d857}, !- Thermal Zone Name
  ,                                       !- Part of Total Floor Area
  ,                                       !- Design Specification Outdoor Air Object Name
  {63f0be54-c40f-48cb-a6e5-89022fdb179a}; !- Building Unit Name

OS:Surface,
  {8ae879f5-9083-4dda-a60f-b3510b71d34e}, !- Handle
  Surface 7,                              !- Name
  Floor,                                  !- Surface Type
  ,                                       !- Construction Name
  {1b1c13ae-4231-4cd9-ad1d-67dc8873274b}, !- Space Name
  Ground,                                 !- Outside Boundary Condition
  ,                                       !- Outside Boundary Condition Object
  NoSun,                                  !- Sun Exposure
  NoWind,                                 !- Wind Exposure
  ,                                       !- View Factor to Ground
  ,                                       !- Number of Vertices
  0, 3.048, 0,                            !- X,Y,Z Vertex 1 {m}
  0, 6.81553519541936, 0,                 !- X,Y,Z Vertex 2 {m}
  13.6310703908387, 6.81553519541936, 0,  !- X,Y,Z Vertex 3 {m}
  13.6310703908387, 0, 0,                 !- X,Y,Z Vertex 4 {m}
  6.096, 0, 0,                            !- X,Y,Z Vertex 5 {m}
  6.096, 3.048, 0;                        !- X,Y,Z Vertex 6 {m}

OS:Surface,
  {04dc236c-f954-4cfc-ad93-928004129136}, !- Handle
  Surface 8,                              !- Name
  Wall,                                   !- Surface Type
  ,                                       !- Construction Name
  {1b1c13ae-4231-4cd9-ad1d-67dc8873274b}, !- Space Name
  Outdoors,                               !- Outside Boundary Condition
  ,                                       !- Outside Boundary Condition Object
  SunExposed,                             !- Sun Exposure
  WindExposed,                            !- Wind Exposure
  ,                                       !- View Factor to Ground
  ,                                       !- Number of Vertices
  0, 6.81553519541936, 2.4384,            !- X,Y,Z Vertex 1 {m}
  0, 6.81553519541936, 0,                 !- X,Y,Z Vertex 2 {m}
  0, 3.048, 0,                            !- X,Y,Z Vertex 3 {m}
  0, 3.048, 2.4384;                       !- X,Y,Z Vertex 4 {m}

OS:Surface,
  {e9192e9e-0722-4332-a2f3-5c8e21aec24f}, !- Handle
  Surface 9,                              !- Name
  Wall,                                   !- Surface Type
  ,                                       !- Construction Name
  {1b1c13ae-4231-4cd9-ad1d-67dc8873274b}, !- Space Name
  Outdoors,                               !- Outside Boundary Condition
  ,                                       !- Outside Boundary Condition Object
  SunExposed,                             !- Sun Exposure
  WindExposed,                            !- Wind Exposure
  ,                                       !- View Factor to Ground
  ,                                       !- Number of Vertices
  13.6310703908387, 6.81553519541936, 2.4384, !- X,Y,Z Vertex 1 {m}
  13.6310703908387, 6.81553519541936, 0,  !- X,Y,Z Vertex 2 {m}
  0, 6.81553519541936, 0,                 !- X,Y,Z Vertex 3 {m}
  0, 6.81553519541936, 2.4384;            !- X,Y,Z Vertex 4 {m}

OS:Surface,
  {d58a0270-eace-4005-b50a-eb1767f5f031}, !- Handle
  Surface 10,                             !- Name
  Wall,                                   !- Surface Type
  ,                                       !- Construction Name
  {1b1c13ae-4231-4cd9-ad1d-67dc8873274b}, !- Space Name
  Outdoors,                               !- Outside Boundary Condition
  ,                                       !- Outside Boundary Condition Object
  SunExposed,                             !- Sun Exposure
  WindExposed,                            !- Wind Exposure
  ,                                       !- View Factor to Ground
  ,                                       !- Number of Vertices
  13.6310703908387, 0, 2.4384,            !- X,Y,Z Vertex 1 {m}
  13.6310703908387, 0, 0,                 !- X,Y,Z Vertex 2 {m}
  13.6310703908387, 6.81553519541936, 0,  !- X,Y,Z Vertex 3 {m}
  13.6310703908387, 6.81553519541936, 2.4384; !- X,Y,Z Vertex 4 {m}

OS:Surface,
  {48d4bac5-ec9b-44b1-a291-d44671b6a0a4}, !- Handle
  Surface 11,                             !- Name
  Wall,                                   !- Surface Type
  ,                                       !- Construction Name
  {1b1c13ae-4231-4cd9-ad1d-67dc8873274b}, !- Space Name
  Outdoors,                               !- Outside Boundary Condition
  ,                                       !- Outside Boundary Condition Object
  SunExposed,                             !- Sun Exposure
  WindExposed,                            !- Wind Exposure
  ,                                       !- View Factor to Ground
  ,                                       !- Number of Vertices
  6.096, 0, 2.4384,                       !- X,Y,Z Vertex 1 {m}
  6.096, 0, 0,                            !- X,Y,Z Vertex 2 {m}
  13.6310703908387, 0, 0,                 !- X,Y,Z Vertex 3 {m}
  13.6310703908387, 0, 2.4384;            !- X,Y,Z Vertex 4 {m}

OS:Surface,
  {8c4481ff-9d6f-48f5-8ae9-c8cf14e4dcba}, !- Handle
  Surface 12,                             !- Name
  Wall,                                   !- Surface Type
  ,                                       !- Construction Name
  {1b1c13ae-4231-4cd9-ad1d-67dc8873274b}, !- Space Name
  Surface,                                !- Outside Boundary Condition
  {3aece24e-61f8-4448-a5c8-958a298369ca}, !- Outside Boundary Condition Object
  NoSun,                                  !- Sun Exposure
  NoWind,                                 !- Wind Exposure
  ,                                       !- View Factor to Ground
  ,                                       !- Number of Vertices
  6.096, 3.048, 2.4384,                   !- X,Y,Z Vertex 1 {m}
  6.096, 3.048, 0,                        !- X,Y,Z Vertex 2 {m}
  6.096, 0, 0,                            !- X,Y,Z Vertex 3 {m}
  6.096, 0, 2.4384;                       !- X,Y,Z Vertex 4 {m}

OS:Surface,
  {709609b2-afbf-473a-b0e2-3e81e1b44f63}, !- Handle
  Surface 13,                             !- Name
  Wall,                                   !- Surface Type
  ,                                       !- Construction Name
  {1b1c13ae-4231-4cd9-ad1d-67dc8873274b}, !- Space Name
  Surface,                                !- Outside Boundary Condition
  {d7c2bbbe-eea3-48b9-9f62-5cd19d015431}, !- Outside Boundary Condition Object
  NoSun,                                  !- Sun Exposure
  NoWind,                                 !- Wind Exposure
  ,                                       !- View Factor to Ground
  ,                                       !- Number of Vertices
  0, 3.048, 2.4384,                       !- X,Y,Z Vertex 1 {m}
  0, 3.048, 0,                            !- X,Y,Z Vertex 2 {m}
  6.096, 3.048, 0,                        !- X,Y,Z Vertex 3 {m}
  6.096, 3.048, 2.4384;                   !- X,Y,Z Vertex 4 {m}

OS:Surface,
  {a7eb89e4-f9f1-479f-bad9-c510935cf010}, !- Handle
  Surface 14,                             !- Name
  RoofCeiling,                            !- Surface Type
  ,                                       !- Construction Name
  {1b1c13ae-4231-4cd9-ad1d-67dc8873274b}, !- Space Name
  Surface,                                !- Outside Boundary Condition
  {80438777-03a4-4bba-b3b2-cbbd1269d38f}, !- Outside Boundary Condition Object
  NoSun,                                  !- Sun Exposure
  NoWind,                                 !- Wind Exposure
  ,                                       !- View Factor to Ground
  ,                                       !- Number of Vertices
  13.6310703908387, 0, 2.4384,            !- X,Y,Z Vertex 1 {m}
  13.6310703908387, 6.81553519541936, 2.4384, !- X,Y,Z Vertex 2 {m}
  0, 6.81553519541936, 2.4384,            !- X,Y,Z Vertex 3 {m}
  0, 3.048, 2.4384,                       !- X,Y,Z Vertex 4 {m}
  6.096, 3.048, 2.4384,                   !- X,Y,Z Vertex 5 {m}
  6.096, 0, 2.4384;                       !- X,Y,Z Vertex 6 {m}

OS:Space,
  {0ca887ef-6c8f-4319-9ea4-b9c6a9180a88}, !- Handle
  living space|story 2,                   !- Name
  ,                                       !- Space Type Name
  ,                                       !- Default Construction Set Name
  ,                                       !- Default Schedule Set Name
  -0,                                     !- Direction of Relative North {deg}
  0,                                      !- X Origin {m}
  0,                                      !- Y Origin {m}
  2.4384,                                 !- Z Origin {m}
  ,                                       !- Building Story Name
  {a334b2c5-f244-4d7b-a065-773b4367d857}, !- Thermal Zone Name