!- NOTE: Auto-generated from /test/osw_files/SFD_2000sqft_2story_SL_GRGTucked_UA.osw

OS:Version,
  {5d35f330-185b-4543-9a2e-6bf32ceffde4}, !- Handle
  2.3.1;                                  !- Version Identifier

OS:Building,
  {bf305633-c5a1-4881-9edf-ca5e1a8e1274}, !- Handle
  Building,                               !- Name
  ,                                       !- Building Sector Type
  ,                                       !- North Axis {deg}
  ,                                       !- Nominal Floor to Floor Height {m}
  ,                                       !- Space Type Name
  ,                                       !- Default Construction Set Name
  ,                                       !- Default Schedule Set Name
  2,                                      !- Standards Number of Stories
  2,                                      !- Standards Number of Above Ground Stories
  singlefamilydetached,                   !- Standards Building Type
  1;                                      !- Standards Number of Living Units

OS:YearDescription,
  {513d8dda-86cb-442a-b01c-1f7f0e0ac70e}; !- Handle

OS:SimulationControl,
  {2c487a4c-bac9-4ac5-b669-1e49d9da7c2b}, !- Handle
  ,                                       !- Do Zone Sizing Calculation
  ,                                       !- Do System Sizing Calculation
  ,                                       !- Do Plant Sizing Calculation
  No,                                     !- Run Simulation for Sizing Periods
  ;                                       !- Run Simulation for Weather File Run Periods

OS:Timestep,
  {4ebc9f1e-4707-402e-9844-67eb1ffbd522}, !- Handle
  6;                                      !- Number of Timesteps per Hour

OS:RunPeriod,
  {28df894d-6af9-4fb8-8f56-df1753344aa3}, !- Handle
  Run Period,                             !- Name
  1,                                      !- Begin Month
  1,                                      !- Begin Day of Month
  12,                                     !- End Month
  31,                                     !- End Day of Month
  ,                                       !- Use Weather File Holidays and Special Days
  ,                                       !- Use Weather File Daylight Saving Period
  ,                                       !- Apply Weekend Holiday Rule
  ,                                       !- Use Weather File Rain Indicators
  ,                                       !- Use Weather File Snow Indicators
  ;                                       !- Number of Times Runperiod to be Repeated

OS:Sizing:Parameters,
  {dde5af6f-7923-4600-a28a-7556673a0266}, !- Handle
  1.0,                                    !- Heating Sizing Factor
  1.0;                                    !- Cooling Sizing Factor

OS:ShadowCalculation,
  {ca758bea-4416-4626-9bba-3d8795c79bd6}, !- Handle
  20,                                     !- Calculation Frequency
  200;                                    !- Maximum Figures in Shadow Overlap Calculations

OS:SurfaceConvectionAlgorithm:Inside,
  {aaabfc36-718a-4ab0-b622-f186ebb45230}, !- Handle
  TARP;                                   !- Algorithm

OS:SurfaceConvectionAlgorithm:Outside,
  {9a0a9f6f-4bbd-4b12-a121-9492a1fcd7d6}, !- Handle
  DOE-2;                                  !- Algorithm

OS:HeatBalanceAlgorithm,
  {9d93e563-e1e0-46d7-9e39-d1c8aceb7212}, !- Handle
  ConductionTransferFunction,             !- Algorithm
  200;                                    !- Surface Temperature Upper Limit {C}

OS:ZoneCapacitanceMultiplier:ResearchSpecial,
  {6bfced16-b16f-47f6-8223-f7e267d75d19}, !- Handle
  ,                                       !- Temperature Capacity Multiplier
  15,                                     !- Humidity Capacity Multiplier
  ;                                       !- Carbon Dioxide Capacity Multiplier

OS:ThermalZone,
  {9981ab3d-c93b-4d9a-93db-2fb62226e9ba}, !- Handle
  living zone,                            !- Name
  ,                                       !- Multiplier
  ,                                       !- Ceiling Height {m}
  ,                                       !- Volume {m3}
  ,                                       !- Floor Area {m2}
  ,                                       !- Zone Inside Convection Algorithm
  ,                                       !- Zone Outside Convection Algorithm
  ,                                       !- Zone Conditioning Equipment List Name
  {52211a45-8c62-41d6-9e59-255e446f2c77}, !- Zone Air Inlet Port List
  {850b78e9-ffed-4929-a1cc-291bb128f9c7}, !- Zone Air Exhaust Port List
  {e1bac468-8ca2-46b5-8096-ca2cfbf6aba7}, !- Zone Air Node Name
  ,                                       !- Zone Return Air Node Name
  ,                                       !- Primary Daylighting Control Name
  ,                                       !- Fraction of Zone Controlled by Primary Daylighting Control
  ,                                       !- Secondary Daylighting Control Name
  ,                                       !- Fraction of Zone Controlled by Secondary Daylighting Control
  ,                                       !- Illuminance Map Name
  ,                                       !- Group Rendering Name
  ,                                       !- Thermostat Name
  No;                                     !- Use Ideal Air Loads

OS:Node,
  {4ccdf8b1-2ffd-466b-a6ed-edc80d535b39}, !- Handle
  Node 1,                                 !- Name
  {e1bac468-8ca2-46b5-8096-ca2cfbf6aba7}, !- Inlet Port
  ;                                       !- Outlet Port

OS:Connection,
  {e1bac468-8ca2-46b5-8096-ca2cfbf6aba7}, !- Handle
  {6386d3a0-27b1-4683-bb17-c8299a84bd0b}, !- Name
  {9981ab3d-c93b-4d9a-93db-2fb62226e9ba}, !- Source Object
  11,                                     !- Outlet Port
  {4ccdf8b1-2ffd-466b-a6ed-edc80d535b39}, !- Target Object
  2;                                      !- Inlet Port

OS:PortList,
  {52211a45-8c62-41d6-9e59-255e446f2c77}, !- Handle
  {146a2b38-e922-4ab2-acc9-e501fb1661c3}, !- Name
  {9981ab3d-c93b-4d9a-93db-2fb62226e9ba}; !- HVAC Component

OS:PortList,
  {850b78e9-ffed-4929-a1cc-291bb128f9c7}, !- Handle
  {95a54e49-e243-414d-ba21-db5990bfa7e6}, !- Name
  {9981ab3d-c93b-4d9a-93db-2fb62226e9ba}; !- HVAC Component

OS:Sizing:Zone,
  {5d8d0cb2-7fee-4842-bde8-a4c7bffacf3b}, !- Handle
  {9981ab3d-c93b-4d9a-93db-2fb62226e9ba}, !- Zone or ZoneList Name
  SupplyAirTemperature,                   !- Zone Cooling Design Supply Air Temperature Input Method
  14,                                     !- Zone Cooling Design Supply Air Temperature {C}
  11.11,                                  !- Zone Cooling Design Supply Air Temperature Difference {deltaC}
  SupplyAirTemperature,                   !- Zone Heating Design Supply Air Temperature Input Method
  40,                                     !- Zone Heating Design Supply Air Temperature {C}
  11.11,                                  !- Zone Heating Design Supply Air Temperature Difference {deltaC}
  0.0085,                                 !- Zone Cooling Design Supply Air Humidity Ratio {kg-H2O/kg-air}
  0.008,                                  !- Zone Heating Design Supply Air Humidity Ratio {kg-H2O/kg-air}
  ,                                       !- Zone Heating Sizing Factor
  ,                                       !- Zone Cooling Sizing Factor
  DesignDay,                              !- Cooling Design Air Flow Method
  ,                                       !- Cooling Design Air Flow Rate {m3/s}
  ,                                       !- Cooling Minimum Air Flow per Zone Floor Area {m3/s-m2}
  ,                                       !- Cooling Minimum Air Flow {m3/s}
  ,                                       !- Cooling Minimum Air Flow Fraction
  DesignDay,                              !- Heating Design Air Flow Method
  ,                                       !- Heating Design Air Flow Rate {m3/s}
  ,                                       !- Heating Maximum Air Flow per Zone Floor Area {m3/s-m2}
  ,                                       !- Heating Maximum Air Flow {m3/s}
  ,                                       !- Heating Maximum Air Flow Fraction
  ,                                       !- Design Zone Air Distribution Effectiveness in Cooling Mode
  ,                                       !- Design Zone Air Distribution Effectiveness in Heating Mode
  No,                                     !- Account for Dedicated Outdoor Air System
  NeutralSupplyAir,                       !- Dedicated Outdoor Air System Control Strategy
  autosize,                               !- Dedicated Outdoor Air Low Setpoint Temperature for Design {C}
  autosize;                               !- Dedicated Outdoor Air High Setpoint Temperature for Design {C}

OS:ZoneHVAC:EquipmentList,
  {3aee65c5-7b01-4941-af1b-082696989139}, !- Handle
  Zone HVAC Equipment List 1,             !- Name
  {9981ab3d-c93b-4d9a-93db-2fb62226e9ba}; !- Thermal Zone

OS:ThermalZone,
  {c3d73816-3c2c-4899-b1f5-613e8121bf7e}, !- Handle
  garage zone,                            !- Name
  ,                                       !- Multiplier
  ,                                       !- Ceiling Height {m}
  ,                                       !- Volume {m3}
  ,                                       !- Floor Area {m2}
  ,                                       !- Zone Inside Convection Algorithm
  ,                                       !- Zone Outside Convection Algorithm
  ,                                       !- Zone Conditioning Equipment List Name
  {8ef8f48f-1ea6-4e8d-820f-38b359a3ad72}, !- Zone Air Inlet Port List
  {22e8b93c-1cb8-49d7-8a84-b4f2245a27d6}, !- Zone Air Exhaust Port List
  {aa888bac-83b4-4f2a-a61c-abca200c873d}, !- Zone Air Node Name
  ,                                       !- Zone Return Air Node Name
  ,                                       !- Primary Daylighting Control Name
  ,                                       !- Fraction of Zone Controlled by Primary Daylighting Control
  ,                                       !- Secondary Daylighting Control Name
  ,                                       !- Fraction of Zone Controlled by Secondary Daylighting Control
  ,                                       !- Illuminance Map Name
  ,                                       !- Group Rendering Name
  ,                                       !- Thermostat Name
  No;                                     !- Use Ideal Air Loads

OS:Node,
  {03fccddd-e5a8-494e-9d93-42d573b2abd0}, !- Handle
  Node 2,                                 !- Name
  {aa888bac-83b4-4f2a-a61c-abca200c873d}, !- Inlet Port
  ;                                       !- Outlet Port

OS:Connection,
  {aa888bac-83b4-4f2a-a61c-abca200c873d}, !- Handle
  {3839761f-79da-4bdc-82aa-0cf8dedf0a71}, !- Name
  {c3d73816-3c2c-4899-b1f5-613e8121bf7e}, !- Source Object
  11,                                     !- Outlet Port
  {03fccddd-e5a8-494e-9d93-42d573b2abd0}, !- Target Object
  2;                                      !- Inlet Port

OS:PortList,
  {8ef8f48f-1ea6-4e8d-820f-38b359a3ad72}, !- Handle
  {eb331187-833b-49a8-85cb-88111253833b}, !- Name
  {c3d73816-3c2c-4899-b1f5-613e8121bf7e}; !- HVAC Component

OS:PortList,
  {22e8b93c-1cb8-49d7-8a84-b4f2245a27d6}, !- Handle
  {dae40096-c0de-4057-9777-3bb43a0bfee6}, !- Name
  {c3d73816-3c2c-4899-b1f5-613e8121bf7e}; !- HVAC Component

OS:Sizing:Zone,
  {1f331eac-639a-43cc-9e69-5ef2698810b5}, !- Handle
  {c3d73816-3c2c-4899-b1f5-613e8121bf7e}, !- Zone or ZoneList Name
  SupplyAirTemperature,                   !- Zone Cooling Design Supply Air Temperature Input Method
  14,                                     !- Zone Cooling Design Supply Air Temperature {C}
  11.11,                                  !- Zone Cooling Design Supply Air Temperature Difference {deltaC}
  SupplyAirTemperature,                   !- Zone Heating Design Supply Air Temperature Input Method
  40,                                     !- Zone Heating Design Supply Air Temperature {C}
  11.11,                                  !- Zone Heating Design Supply Air Temperature Difference {deltaC}
  0.0085,                                 !- Zone Cooling Design Supply Air Humidity Ratio {kg-H2O/kg-air}
  0.008,                                  !- Zone Heating Design Supply Air Humidity Ratio {kg-H2O/kg-air}
  ,                                       !- Zone Heating Sizing Factor
  ,                                       !- Zone Cooling Sizing Factor
  DesignDay,                              !- Cooling Design Air Flow Method
  ,                                       !- Cooling Design Air Flow Rate {m3/s}
  ,                                       !- Cooling Minimum Air Flow per Zone Floor Area {m3/s-m2}
  ,                                       !- Cooling Minimum Air Flow {m3/s}
  ,                                       !- Cooling Minimum Air Flow Fraction
  DesignDay,                              !- Heating Design Air Flow Method
  ,                                       !- Heating Design Air Flow Rate {m3/s}
  ,                                       !- Heating Maximum Air Flow per Zone Floor Area {m3/s-m2}
  ,                                       !- Heating Maximum Air Flow {m3/s}
  ,                                       !- Heating Maximum Air Flow Fraction
  ,                                       !- Design Zone Air Distribution Effectiveness in Cooling Mode
  ,                                       !- Design Zone Air Distribution Effectiveness in Heating Mode
  No,                                     !- Account for Dedicated Outdoor Air System
  NeutralSupplyAir,                       !- Dedicated Outdoor Air System Control Strategy
  autosize,                               !- Dedicated Outdoor Air Low Setpoint Temperature for Design {C}
  autosize;                               !- Dedicated Outdoor Air High Setpoint Temperature for Design {C}

OS:ZoneHVAC:EquipmentList,
  {e95c08e5-9afb-4f45-a227-f1de39ee5bd6}, !- Handle
  Zone HVAC Equipment List 2,             !- Name
  {c3d73816-3c2c-4899-b1f5-613e8121bf7e}; !- Thermal Zone

OS:Space,
  {03f05899-470b-4ac3-873c-cd5e7b83f6fb}, !- Handle
  garage space,                           !- Name
  ,                                       !- Space Type Name
  ,                                       !- Default Construction Set Name
  ,                                       !- Default Schedule Set Name
  -0,                                     !- Direction of Relative North {deg}
  0,                                      !- X Origin {m}
  0,                                      !- Y Origin {m}
  0,                                      !- Z Origin {m}
  ,                                       !- Building Story Name
  {c3d73816-3c2c-4899-b1f5-613e8121bf7e}, !- Thermal Zone Name
  ,                                       !- Part of Total Floor Area
  ,                                       !- Design Specification Outdoor Air Object Name
  {44c0bcd4-287b-4694-8fa7-19a41b6d9ccf}; !- Building Unit Name

OS:Surface,
  {e626776b-988d-46c4-b389-ddd99f570ded}, !- Handle
  Surface 1,                              !- Name
  Floor,                                  !- Surface Type
  ,                                       !- Construction Name
  {03f05899-470b-4ac3-873c-cd5e7b83f6fb}, !- Space Name
  Ground,                                 !- Outside Boundary Condition
  ,                                       !- Outside Boundary Condition Object
  NoSun,                                  !- Sun Exposure
  NoWind,                                 !- Wind Exposure
  ,                                       !- View Factor to Ground
  ,                                       !- Number of Vertices
  8.83608947200625, 0, 0,                 !- X,Y,Z Vertex 1 {m}
  8.83608947200625, 6.096, 0,             !- X,Y,Z Vertex 2 {m}
  14.9320894720063, 6.096, 0,             !- X,Y,Z Vertex 3 {m}
  14.9320894720063, 0, 0;                 !- X,Y,Z Vertex 4 {m}

OS:Surface,
  {a64c5faa-9aed-407a-8cc6-0916ab123363}, !- Handle
  Surface 2,                              !- Name
  Wall,                                   !- Surface Type
  ,                                       !- Construction Name
  {03f05899-470b-4ac3-873c-cd5e7b83f6fb}, !- Space Name
  Surface,                                !- Outside Boundary Condition
  {fb9f9da4-9d5c-4bb9-9ed8-e0d1c989d358}, !- Outside Boundary Condition Object
  NoSun,                                  !- Sun Exposure
  NoWind,                                 !- Wind Exposure
  ,                                       !- View Factor to Ground
  ,                                       !- Number of Vertices
  8.83608947200625, 6.096, 2.4384,        !- X,Y,Z Vertex 1 {m}
  8.83608947200625, 6.096, 0,             !- X,Y,Z Vertex 2 {m}
  8.83608947200625, 0, 0,                 !- X,Y,Z Vertex 3 {m}
  8.83608947200625, 0, 2.4384;            !- X,Y,Z Vertex 4 {m}

OS:Surface,
  {c101806c-5533-44e5-829b-db7f30dd1a32}, !- Handle
  Surface 3,                              !- Name
  Wall,                                   !- Surface Type
  ,                                       !- Construction Name
  {03f05899-470b-4ac3-873c-cd5e7b83f6fb}, !- Space Name
  Surface,                                !- Outside Boundary Condition
  {d4105bf6-923f-4afc-9948-8df3964e4363}, !- Outside Boundary Condition Object
  NoSun,                                  !- Sun Exposure
  NoWind,                                 !- Wind Exposure
  ,                                       !- View Factor to Ground
  ,                                       !- Number of Vertices
  14.9320894720063, 6.096, 2.4384,        !- X,Y,Z Vertex 1 {m}
  14.9320894720063, 6.096, 0,             !- X,Y,Z Vertex 2 {m}
  8.83608947200625, 6.096, 0,             !- X,Y,Z Vertex 3 {m}
  8.83608947200625, 6.096, 2.4384;        !- X,Y,Z Vertex 4 {m}

OS:Surface,
  {60ae1843-9de5-48f6-9971-67464d2e6945}, !- Handle
  Surface 4,                              !- Name
  Wall,                                   !- Surface Type
  ,                                       !- Construction Name
  {03f05899-470b-4ac3-873c-cd5e7b83f6fb}, !- Space Name
  Outdoors,                               !- Outside Boundary Condition
  ,                                       !- Outside Boundary Condition Object
  SunExposed,                             !- Sun Exposure
  WindExposed,                            !- Wind Exposure
  ,                                       !- View Factor to Ground
  ,                                       !- Number of Vertices
  14.9320894720063, 0, 2.4384,            !- X,Y,Z Vertex 1 {m}
  14.9320894720063, 0, 0,                 !- X,Y,Z Vertex 2 {m}
  14.9320894720063, 6.096, 0,             !- X,Y,Z Vertex 3 {m}
  14.9320894720063, 6.096, 2.4384;        !- X,Y,Z Vertex 4 {m}

OS:Surface,
  {5964e4bb-d82b-4e41-a1ea-ea2ac957053b}, !- Handle
  Surface 5,                              !- Name
  Wall,                                   !- Surface Type
  ,                                       !- Construction Name
  {03f05899-470b-4ac3-873c-cd5e7b83f6fb}, !- Space Name
  Outdoors,                               !- Outside Boundary Condition
  ,                                       !- Outside Boundary Condition Object
  SunExposed,                             !- Sun Exposure
  WindExposed,                            !- Wind Exposure
  ,                                       !- View Factor to Ground
  ,                                       !- Number of Vertices
  8.83608947200625, 0, 2.4384,            !- X,Y,Z Vertex 1 {m}
  8.83608947200625, 0, 0,                 !- X,Y,Z Vertex 2 {m}
  14.9320894720063, 0, 0,                 !- X,Y,Z Vertex 3 {m}
  14.9320894720063, 0, 2.4384;            !- X,Y,Z Vertex 4 {m}

OS:Surface,
  {0f9d942a-5df3-44b9-8f16-4995f7575da8}, !- Handle
  Surface 6,                              !- Name
  RoofCeiling,                            !- Surface Type
  ,                                       !- Construction Name
  {03f05899-470b-4ac3-873c-cd5e7b83f6fb}, !- Space Name
  Surface,                                !- Outside Boundary Condition
  {45bb5a80-d92e-4b1c-9b58-a6298cf683e4}, !- Outside Boundary Condition Object
  NoSun,                                  !- Sun Exposure
  NoWind,                                 !- Wind Exposure
  ,                                       !- View Factor to Ground
  ,                                       !- Number of Vertices
  14.9320894720063, 0, 2.4384,            !- X,Y,Z Vertex 1 {m}
  14.9320894720063, 6.096, 2.4384,        !- X,Y,Z Vertex 2 {m}
  8.83608947200625, 6.096, 2.4384,        !- X,Y,Z Vertex 3 {m}
  8.83608947200625, 0, 2.4384;            !- X,Y,Z Vertex 4 {m}

OS:Space,
  {45e731a3-63c1-49c0-98e3-aa10e0939bd7}, !- Handle
  living space,                           !- Name
  ,                                       !- Space Type Name
  ,                                       !- Default Construction Set Name
  ,                                       !- Default Schedule Set Name
  -0,                                     !- Direction of Relative North {deg}
  0,                                      !- X Origin {m}
  0,                                      !- Y Origin {m}
  0,                                      !- Z Origin {m}
  ,                                       !- Building Story Name
  {9981ab3d-c93b-4d9a-93db-2fb62226e9ba}, !- Thermal Zone Name
  ,                                       !- Part of Total Floor Area
  ,                                       !- Design Specification Outdoor Air Object Name
  {44c0bcd4-287b-4694-8fa7-19a41b6d9ccf}; !- Building Unit Name

OS:Surface,
  {970781fd-6558-4bee-994b-96c7c693a480}, !- Handle
  Surface 7,                              !- Name
  Floor,                                  !- Surface Type
  ,                                       !- Construction Name
  {45e731a3-63c1-49c0-98e3-aa10e0939bd7}, !- Space Name
  Ground,                                 !- Outside Boundary Condition
  ,                                       !- Outside Boundary Condition Object
  NoSun,                                  !- Sun Exposure
  NoWind,                                 !- Wind Exposure
  ,                                       !- View Factor to Ground
  ,                                       !- Number of Vertices
  0, 0, 0,                                !- X,Y,Z Vertex 1 {m}
  0, 7.46604473600313, 0,                 !- X,Y,Z Vertex 2 {m}
  14.9320894720063, 7.46604473600313, 0,  !- X,Y,Z Vertex 3 {m}
  14.9320894720063, 6.096, 0,             !- X,Y,Z Vertex 4 {m}
  8.83608947200625, 6.096, 0,             !- X,Y,Z Vertex 5 {m}
  8.83608947200625, 0, 0;                 !- X,Y,Z Vertex 6 {m}

OS:Surface,
  {16147526-5eff-4e8b-b1fc-e3542a3e06d9}, !- Handle
  Surface 8,                              !- Name
  Wall,                                   !- Surface Type
  ,                                       !- Construction Name
  {45e731a3-63c1-49c0-98e3-aa10e0939bd7}, !- Space Name
  Outdoors,                               !- Outside Boundary Condition
  ,                                       !- Outside Boundary Condition Object
  SunExposed,                             !- Sun Exposure
  WindExposed,                            !- Wind Exposure
  ,                                       !- View Factor to Ground
  ,                                       !- Number of Vertices
  0, 7.46604473600313, 2.4384,            !- X,Y,Z Vertex 1 {m}
  0, 7.46604473600313, 0,                 !- X,Y,Z Vertex 2 {m}
  0, 0, 0,                                !- X,Y,Z Vertex 3 {m}
  0, 0, 2.4384;                           !- X,Y,Z Vertex 4 {m}

OS:Surface,
  {4c7c3f18-92ea-4d60-af17-4ef6bbd42791}, !- Handle
  Surface 9,                              !- Name
  Wall,                                   !- Surface Type
  ,                                       !- Construction Name
  {45e731a3-63c1-49c0-98e3-aa10e0939bd7}, !- Space Name
  Outdoors,                               !- Outside Boundary Condition
  ,                                       !- Outside Boundary Condition Object
  SunExposed,                             !- Sun Exposure
  WindExposed,                            !- Wind Exposure
  ,                                       !- View Factor to Ground
  ,                                       !- Number of Vertices
  14.9320894720063, 7.46604473600313, 2.4384, !- X,Y,Z Vertex 1 {m}
  14.9320894720063, 7.46604473600313, 0,  !- X,Y,Z Vertex 2 {m}
  0, 7.46604473600313, 0,                 !- X,Y,Z Vertex 3 {m}
  0, 7.46604473600313, 2.4384;            !- X,Y,Z Vertex 4 {m}

OS:Surface,
  {798b6d29-3588-4a52-9c27-8ec19f3d051c}, !- Handle
  Surface 10,                             !- Name
  Wall,                                   !- Surface Type
  ,                                       !- Construction Name
  {45e731a3-63c1-49c0-98e3-aa10e0939bd7}, !- Space Name
  Outdoors,                               !- Outside Boundary Condition
  ,                                       !- Outside Boundary Condition Object
  SunExposed,                             !- Sun Exposure
  WindExposed,                            !- Wind Exposure
  ,                                       !- View Factor to Ground
  ,                                       !- Number of Vertices
  14.9320894720063, 6.096, 2.4384,        !- X,Y,Z Vertex 1 {m}
  14.9320894720063, 6.096, 0,             !- X,Y,Z Vertex 2 {m}
  14.9320894720063, 7.46604473600313, 0,  !- X,Y,Z Vertex 3 {m}
  14.9320894720063, 7.46604473600313, 2.4384; !- X,Y,Z Vertex 4 {m}

OS:Surface,
  {d4105bf6-923f-4afc-9948-8df3964e4363}, !- Handle
  Surface 11,                             !- Name
  Wall,                                   !- Surface Type
  ,                                       !- Construction Name
  {45e731a3-63c1-49c0-98e3-aa10e0939bd7}, !- Space Name
  Surface,                                !- Outside Boundary Condition
  {c101806c-5533-44e5-829b-db7f30dd1a32}, !- Outside Boundary Condition Object
  NoSun,                                  !- Sun Exposure
  NoWind,                                 !- Wind Exposure
  ,                                       !- View Factor to Ground
  ,                                       !- Number of Vertices
  8.83608947200625, 6.096, 2.4384,        !- X,Y,Z Vertex 1 {m}
  8.83608947200625, 6.096, 0,             !- X,Y,Z Vertex 2 {m}
  14.9320894720063, 6.096, 0,             !- X,Y,Z Vertex 3 {m}
  14.9320894720063, 6.096, 2.4384;        !- X,Y,Z Vertex 4 {m}

OS:Surface,
  {fb9f9da4-9d5c-4bb9-9ed8-e0d1c989d358}, !- Handle
  Surface 12,                             !- Name
  Wall,                                   !- Surface Type
  ,                                       !- Construction Name
  {45e731a3-63c1-49c0-98e3-aa10e0939bd7}, !- Space Name
  Surface,                                !- Outside Boundary Condition
  {a64c5faa-9aed-407a-8cc6-0916ab123363}, !- Outside Boundary Condition Object
  NoSun,                                  !- Sun Exposure
  NoWind,                                 !- Wind Exposure
  ,                                       !- View Factor to Ground
  ,                                       !- Number of Vertices
  8.83608947200625, 0, 2.4384,            !- X,Y,Z Vertex 1 {m}
  8.83608947200625, 0, 0,                 !- X,Y,Z Vertex 2 {m}
  8.83608947200625, 6.096, 0,             !- X,Y,Z Vertex 3 {m}
  8.83608947200625, 6.096, 2.4384;        !- X,Y,Z Vertex 4 {m}

OS:Surface,
  {513944c6-c9ee-49ca-9591-e12302bfbec6}, !- Handle
  Surface 13,                             !- Name
  Wall,                                   !- Surface Type
  ,                                       !- Construction Name
  {45e731a3-63c1-49c0-98e3-aa10e0939bd7}, !- Space Name
  Outdoors,                               !- Outside Boundary Condition
  ,                                       !- Outside Boundary Condition Object
  SunExposed,                             !- Sun Exposure
  WindExposed,                            !- Wind Exposure
  ,                                       !- View Factor to Ground
  ,                                       !- Number of Vertices
  0, 0, 2.4384,                           !- X,Y,Z Vertex 1 {m}
  0, 0, 0,                                !- X,Y,Z Vertex 2 {m}
  8.83608947200625, 0, 0,                 !- X,Y,Z Vertex 3 {m}
  8.83608947200625, 0, 2.4384;            !- X,Y,Z Vertex 4 {m}

OS:Surface,
  {09b4dc47-8d43-409c-9076-9c784b869c63}, !- Handle
  Surface 14,                             !- Name
  RoofCeiling,                            !- Surface Type
  ,                                       !- Construction Name
  {45e731a3-63c1-49c0-98e3-aa10e0939bd7}, !- Space Name
  Surface,                                !- Outside Boundary Condition
  {0c4a912b-be3d-4769-9a40-c2e8b811f339}, !- Outside Boundary Condition Object
  NoSun,                                  !- Sun Exposure
  NoWind,                                 !- Wind Exposure
  ,                                       !- View Factor to Ground
  ,                                       !- Number of Vertices
  8.83608947200625, 0, 2.4384,            !- X,Y,Z Vertex 1 {m}
  8.83608947200625, 6.096, 2.4384,        !- X,Y,Z Vertex 2 {m}
  14.9320894720063, 6.096, 2.4384,        !- X,Y,Z Vertex 3 {m}
  14.9320894720063, 7.46604473600313, 2.4384, !- X,Y,Z Vertex 4 {m}
  0, 7.46604473600313, 2.4384,            !- X,Y,Z Vertex 5 {m}
  0, 0, 2.4384;                           !- X,Y,Z Vertex 6 {m}

OS:Space,
  {0ff2b371-4855-4177-9493-6b4a32a49c89}, !- Handle
  living space|story 2,                   !- Name
  ,                                       !- Space Type Name
  ,                                       !- Default Construction Set Name
  ,                                       !- Default Schedule Set Name
  -0,                                     !- Direction of Relative North {deg}
  0,                                      !- X Origin {m}