!- NOTE: Auto-generated from /test/osw_files/SFA_4units_1story_SL_UA_Offset.osw

OS:Version,
  {9de6572c-ca24-4e4e-9823-4321e5414c70}, !- Handle
  2.2.1;                                  !- Version Identifier

OS:Building,
  {bf305633-c5a1-4881-9edf-ca5e1a8e1274}, !- Handle
  Building,                               !- Name
  ,                                       !- Building Sector Type
  ,                                       !- North Axis {deg}
  ,                                       !- Nominal Floor to Floor Height {m}
  ,                                       !- Space Type Name
  ,                                       !- Default Construction Set Name
  ,                                       !- Default Schedule Set Name
  1,                                      !- Standards Number of Stories
  1,                                      !- Standards Number of Above Ground Stories
  singlefamilyttached,                    !- Standards Building Type
  4;                                      !- Standards Number of Living Units

OS:YearDescription,
  {513d8dda-86cb-442a-b01c-1f7f0e0ac70e}; !- Handle

OS:SimulationControl,
  {2c487a4c-bac9-4ac5-b669-1e49d9da7c2b}, !- Handle
  ,                                       !- Do Zone Sizing Calculation
  ,                                       !- Do System Sizing Calculation
  ,                                       !- Do Plant Sizing Calculation
  No,                                     !- Run Simulation for Sizing Periods
  ;                                       !- Run Simulation for Weather File Run Periods

OS:Timestep,
  {4ebc9f1e-4707-402e-9844-67eb1ffbd522}, !- Handle
  6;                                      !- Number of Timesteps per Hour

OS:RunPeriod,
  {28df894d-6af9-4fb8-8f56-df1753344aa3}, !- Handle
  Run Period,                             !- Name
  1,                                      !- Begin Month
  1,                                      !- Begin Day of Month
  12,                                     !- End Month
  31,                                     !- End Day of Month
  ,                                       !- Use Weather File Holidays and Special Days
  ,                                       !- Use Weather File Daylight Saving Period
  ,                                       !- Apply Weekend Holiday Rule
  ,                                       !- Use Weather File Rain Indicators
  ,                                       !- Use Weather File Snow Indicators
  ;                                       !- Number of Times Runperiod to be Repeated

OS:Sizing:Parameters,
  {dde5af6f-7923-4600-a28a-7556673a0266}, !- Handle
  1.0,                                    !- Heating Sizing Factor
  1.0;                                    !- Cooling Sizing Factor

OS:ShadowCalculation,
  {ca758bea-4416-4626-9bba-3d8795c79bd6}, !- Handle
  20,                                     !- Calculation Frequency
  200;                                    !- Maximum Figures in Shadow Overlap Calculations

OS:SurfaceConvectionAlgorithm:Inside,
  {aaabfc36-718a-4ab0-b622-f186ebb45230}, !- Handle
  TARP;                                   !- Algorithm

OS:SurfaceConvectionAlgorithm:Outside,
  {9a0a9f6f-4bbd-4b12-a121-9492a1fcd7d6}, !- Handle
  DOE-2;                                  !- Algorithm

OS:HeatBalanceAlgorithm,
  {9d93e563-e1e0-46d7-9e39-d1c8aceb7212}, !- Handle
  ConductionTransferFunction,             !- Algorithm
  200;                                    !- Surface Temperature Upper Limit {C}

OS:ZoneCapacitanceMultiplier:ResearchSpecial,
  {6bfced16-b16f-47f6-8223-f7e267d75d19}, !- Handle
  ,                                       !- Temperature Capacity Multiplier
  15,                                     !- Humidity Capacity Multiplier
  ;                                       !- Carbon Dioxide Capacity Multiplier

OS:ThermalZone,
  {051f7581-028a-4542-95c4-f3f53bf0f7a2}, !- Handle
  living zone,                            !- Name
  ,                                       !- Multiplier
  ,                                       !- Ceiling Height {m}
  ,                                       !- Volume {m3}
  ,                                       !- Floor Area {m2}
  ,                                       !- Zone Inside Convection Algorithm
  ,                                       !- Zone Outside Convection Algorithm
  ,                                       !- Zone Conditioning Equipment List Name
  {4cab449a-fa52-4f68-b763-c3c112d344aa}, !- Zone Air Inlet Port List
  {b484a22e-fce0-4e55-925a-db909a8b74f3}, !- Zone Air Exhaust Port List
  {653e04dc-5007-4fa9-8d51-e50b5178e837}, !- Zone Air Node Name
  ,                                       !- Zone Return Air Node Name
  ,                                       !- Primary Daylighting Control Name
  ,                                       !- Fraction of Zone Controlled by Primary Daylighting Control
  ,                                       !- Secondary Daylighting Control Name
  ,                                       !- Fraction of Zone Controlled by Secondary Daylighting Control
  ,                                       !- Illuminance Map Name
  ,                                       !- Group Rendering Name
  ,                                       !- Thermostat Name
  No;                                     !- Use Ideal Air Loads

OS:Node,
  {5e442dd6-d581-43e6-a559-dac3cdebeeea}, !- Handle
  Node 1,                                 !- Name
  {653e04dc-5007-4fa9-8d51-e50b5178e837}, !- Inlet Port
  ;                                       !- Outlet Port

OS:Connection,
  {653e04dc-5007-4fa9-8d51-e50b5178e837}, !- Handle
  {7344d2ef-e01a-4a8f-beca-608d8b005eb3}, !- Name
  {051f7581-028a-4542-95c4-f3f53bf0f7a2}, !- Source Object
  11,                                     !- Outlet Port
  {5e442dd6-d581-43e6-a559-dac3cdebeeea}, !- Target Object
  2;                                      !- Inlet Port

OS:PortList,
  {4cab449a-fa52-4f68-b763-c3c112d344aa}, !- Handle
  {099ce5ca-0938-4985-a835-0628b9d37975}, !- Name
  {051f7581-028a-4542-95c4-f3f53bf0f7a2}; !- HVAC Component

OS:PortList,
  {b484a22e-fce0-4e55-925a-db909a8b74f3}, !- Handle
  {02fc5dc6-a311-4b7a-9946-89ad9d2f2524}, !- Name
  {051f7581-028a-4542-95c4-f3f53bf0f7a2}; !- HVAC Component

OS:Sizing:Zone,
  {5359fe61-f0f5-450a-b933-1af2c3c0423b}, !- Handle
  {051f7581-028a-4542-95c4-f3f53bf0f7a2}, !- Zone or ZoneList Name
  SupplyAirTemperature,                   !- Zone Cooling Design Supply Air Temperature Input Method
  14,                                     !- Zone Cooling Design Supply Air Temperature {C}
  11.11,                                  !- Zone Cooling Design Supply Air Temperature Difference {deltaC}
  SupplyAirTemperature,                   !- Zone Heating Design Supply Air Temperature Input Method
  40,                                     !- Zone Heating Design Supply Air Temperature {C}
  11.11,                                  !- Zone Heating Design Supply Air Temperature Difference {deltaC}
  0.0085,                                 !- Zone Cooling Design Supply Air Humidity Ratio {kg-H2O/kg-air}
  0.008,                                  !- Zone Heating Design Supply Air Humidity Ratio {kg-H2O/kg-air}
  ,                                       !- Zone Heating Sizing Factor
  ,                                       !- Zone Cooling Sizing Factor
  DesignDay,                              !- Cooling Design Air Flow Method
  ,                                       !- Cooling Design Air Flow Rate {m3/s}
  ,                                       !- Cooling Minimum Air Flow per Zone Floor Area {m3/s-m2}
  ,                                       !- Cooling Minimum Air Flow {m3/s}
  ,                                       !- Cooling Minimum Air Flow Fraction
  DesignDay,                              !- Heating Design Air Flow Method
  ,                                       !- Heating Design Air Flow Rate {m3/s}
  ,                                       !- Heating Maximum Air Flow per Zone Floor Area {m3/s-m2}
  ,                                       !- Heating Maximum Air Flow {m3/s}
  ,                                       !- Heating Maximum Air Flow Fraction
  ,                                       !- Design Zone Air Distribution Effectiveness in Cooling Mode
  ,                                       !- Design Zone Air Distribution Effectiveness in Heating Mode
  No,                                     !- Account for Dedicated Outdoor Air System
  NeutralSupplyAir,                       !- Dedicated Outdoor Air System Control Strategy
  autosize,                               !- Dedicated Outdoor Air Low Setpoint Temperature for Design {C}
  autosize;                               !- Dedicated Outdoor Air High Setpoint Temperature for Design {C}

OS:ZoneHVAC:EquipmentList,
  {c6519f4b-e452-44e1-af20-ee0639429093}, !- Handle
  Zone HVAC Equipment List 1,             !- Name
  {051f7581-028a-4542-95c4-f3f53bf0f7a2}; !- Thermal Zone

OS:Space,
  {0e75e56c-206f-43ce-bc94-817771a677e1}, !- Handle
  living space,                           !- Name
  {0f2f7797-4349-4846-a215-ab820ec988f7}, !- Space Type Name
  ,                                       !- Default Construction Set Name
  ,                                       !- Default Schedule Set Name
  ,                                       !- Direction of Relative North {deg}
  ,                                       !- X Origin {m}
  ,                                       !- Y Origin {m}
  ,                                       !- Z Origin {m}
  ,                                       !- Building Story Name
  {051f7581-028a-4542-95c4-f3f53bf0f7a2}, !- Thermal Zone Name
  ,                                       !- Part of Total Floor Area
  ,                                       !- Design Specification Outdoor Air Object Name
  {38efc268-2fde-4a5f-b0c8-b9d368fb1690}; !- Building Unit Name

OS:Surface,
  {4b651479-c235-4442-8fd5-0b7268f6f404}, !- Handle
  Surface 1,                              !- Name
  Floor,                                  !- Surface Type
  ,                                       !- Construction Name
  {0e75e56c-206f-43ce-bc94-817771a677e1}, !- Space Name
  Ground,                                 !- Outside Boundary Condition
  ,                                       !- Outside Boundary Condition Object
  NoSun,                                  !- Sun Exposure
  NoWind,                                 !- Wind Exposure
  ,                                       !- View Factor to Ground
  ,                                       !- Number of Vertices
  0, -12.9315688143396, 0,                !- X,Y,Z Vertex 1 {m}
  0, 0, 0,                                !- X,Y,Z Vertex 2 {m}
  6.46578440716979, 0, 0,                 !- X,Y,Z Vertex 3 {m}
  6.46578440716979, -12.9315688143396, 0; !- X,Y,Z Vertex 4 {m}

OS:Surface,
  {9e60a863-77da-4a5f-8096-ec7f1bd34957}, !- Handle
  Surface 2,                              !- Name
  Wall,                                   !- Surface Type
  ,                                       !- Construction Name
  {0e75e56c-206f-43ce-bc94-817771a677e1}, !- Space Name
  Outdoors,                               !- Outside Boundary Condition
  ,                                       !- Outside Boundary Condition Object
  SunExposed,                             !- Sun Exposure
  WindExposed,                            !- Wind Exposure
  ,                                       !- View Factor to Ground
  ,                                       !- Number of Vertices
  0, 0, 2.4384,                           !- X,Y,Z Vertex 1 {m}
  0, 0, 0,                                !- X,Y,Z Vertex 2 {m}
  0, -12.9315688143396, 0,                !- X,Y,Z Vertex 3 {m}
  0, -12.9315688143396, 2.4384;           !- X,Y,Z Vertex 4 {m}

OS:Surface,
  {ce4f171f-6bdb-4b18-a708-f4b5ec029bec}, !- Handle
  Surface 3,                              !- Name
  Wall,                                   !- Surface Type
  ,                                       !- Construction Name
  {0e75e56c-206f-43ce-bc94-817771a677e1}, !- Space Name
  Outdoors,                               !- Outside Boundary Condition
  ,                                       !- Outside Boundary Condition Object
  SunExposed,                             !- Sun Exposure
  WindExposed,                            !- Wind Exposure
  ,                                       !- View Factor to Ground
  ,                                       !- Number of Vertices
  6.46578440716979, 0, 2.4384,            !- X,Y,Z Vertex 1 {m}
  6.46578440716979, 0, 0,                 !- X,Y,Z Vertex 2 {m}
  0, 0, 0,                                !- X,Y,Z Vertex 3 {m}
  0, 0, 2.4384;                           !- X,Y,Z Vertex 4 {m}

OS:Surface,
  {468c6b2c-896a-4c28-b176-fc2ccaaca681}, !- Handle
  Surface 4,                              !- Name
  Wall,                                   !- Surface Type
  ,                                       !- Construction Name
  {0e75e56c-206f-43ce-bc94-817771a677e1}, !- Space Name
  Surface,                                !- Outside Boundary Condition
  {2ef661ef-6431-4fff-8bde-5929c53c13b3}, !- Outside Boundary Condition Object
  NoSun,                                  !- Sun Exposure
  NoWind,                                 !- Wind Exposure
  ,                                       !- View Factor to Ground
  ,                                       !- Number of Vertices
  6.46578440716979, -11.1027688143396, 2.4384, !- X,Y,Z Vertex 1 {m}
  6.46578440716979, -11.1027688143396, 0, !- X,Y,Z Vertex 2 {m}
  6.46578440716979, 0, 0,                 !- X,Y,Z Vertex 3 {m}
  6.46578440716979, 0, 2.4384;            !- X,Y,Z Vertex 4 {m}

OS:Surface,
  {234564c2-2c4b-446f-9920-917ec02e78d2}, !- Handle
  Surface 5,                              !- Name
  Wall,                                   !- Surface Type
  ,                                       !- Construction Name
  {0e75e56c-206f-43ce-bc94-817771a677e1}, !- Space Name
  Outdoors,                               !- Outside Boundary Condition
  ,                                       !- Outside Boundary Condition Object
  SunExposed,                             !- Sun Exposure
  WindExposed,                            !- Wind Exposure
  ,                                       !- View Factor to Ground
  ,                                       !- Number of Vertices
  0, -12.9315688143396, 2.4384,           !- X,Y,Z Vertex 1 {m}
  0, -12.9315688143396, 0,                !- X,Y,Z Vertex 2 {m}
  6.46578440716979, -12.9315688143396, 0, !- X,Y,Z Vertex 3 {m}
  6.46578440716979, -12.9315688143396, 2.4384; !- X,Y,Z Vertex 4 {m}

OS:Surface,
  {6a8eb946-43ab-4515-af7a-d1375d087358}, !- Handle
  Surface 6,                              !- Name
  RoofCeiling,                            !- Surface Type
  ,                                       !- Construction Name
  {0e75e56c-206f-43ce-bc94-817771a677e1}, !- Space Name
  Surface,                                !- Outside Boundary Condition
  {6f7942c9-0f06-40be-86f9-437b468e8506}, !- Outside Boundary Condition Object
  NoSun,                                  !- Sun Exposure
  NoWind,                                 !- Wind Exposure
  ,                                       !- View Factor to Ground
  ,                                       !- Number of Vertices
  6.46578440716979, -12.9315688143396, 2.4384, !- X,Y,Z Vertex 1 {m}
  6.46578440716979, 0, 2.4384,            !- X,Y,Z Vertex 2 {m}
  0, 0, 2.4384,                           !- X,Y,Z Vertex 3 {m}
  0, -12.9315688143396, 2.4384;           !- X,Y,Z Vertex 4 {m}

OS:SpaceType,
  {0f2f7797-4349-4846-a215-ab820ec988f7}, !- Handle
  Space Type 1,                           !- Name
  ,                                       !- Default Construction Set Name
  ,                                       !- Default Schedule Set Name
  ,                                       !- Group Rendering Name
  ,                                       !- Design Specification Outdoor Air Object Name
  ,                                       !- Standards Building Type
  living;                                 !- Standards Space Type

OS:Surface,
  {6f7942c9-0f06-40be-86f9-437b468e8506}, !- Handle
  Surface 7,                              !- Name
  Floor,                                  !- Surface Type
  ,                                       !- Construction Name
  {d0b7be71-ef99-4133-9b14-2422e44c9856}, !- Space Name
  Surface,                                !- Outside Boundary Condition
  {6a8eb946-43ab-4515-af7a-d1375d087358}, !- Outside Boundary Condition Object
  NoSun,                                  !- Sun Exposure
  NoWind,                                 !- Wind Exposure
  ,                                       !- View Factor to Ground
  ,                                       !- Number of Vertices
  0, -12.9315688143396, 2.4384,           !- X,Y,Z Vertex 1 {m}
  0, 0, 2.4384,                           !- X,Y,Z Vertex 2 {m}
  6.46578440716979, 0, 2.4384,            !- X,Y,Z Vertex 3 {m}
  6.46578440716979, -12.9315688143396, 2.4384; !- X,Y,Z Vertex 4 {m}

OS:Surface,
  {3eca100e-fbe8-4fe1-a9f3-82ffc8e24788}, !- Handle
  Surface 8,                              !- Name
  RoofCeiling,                            !- Surface Type
  ,                                       !- Construction Name
  {d0b7be71-ef99-4133-9b14-2422e44c9856}, !- Space Name
  Outdoors,                               !- Outside Boundary Condition
  ,                                       !- Outside Boundary Condition Object
  SunExposed,                             !- Sun Exposure
  WindExposed,                            !- Wind Exposure
  ,                                       !- View Factor to Ground
  ,                                       !- Number of Vertices
  3.2328922035849, 0, 4.05484610179245,   !- X,Y,Z Vertex 1 {m}
  0, 0, 2.4384,                           !- X,Y,Z Vertex 2 {m}
  0, -12.9315688143396, 2.4384,           !- X,Y,Z Vertex 3 {m}
  3.2328922035849, -12.9315688143396, 4.05484610179245; !- X,Y,Z Vertex 4 {m}

OS:Surface,
  {a6555ef2-74c6-4dc5-8b7a-718b2f948407}, !- Handle
  Surface 9,                              !- Name
  RoofCeiling,                            !- Surface Type
  ,                                       !- Construction Name
  {d0b7be71-ef99-4133-9b14-2422e44c9856}, !- Space Name
  Outdoors,                               !- Outside Boundary Condition
  ,                                       !- Outside Boundary Condition Object
  SunExposed,                             !- Sun Exposure
  WindExposed,                            !- Wind Exposure
  ,                                       !- View Factor to Ground
  ,                                       !- Number of Vertices
  3.2328922035849, -12.9315688143396, 4.05484610179245, !- X,Y,Z Vertex 1 {m}
  6.46578440716979, -12.9315688143396, 2.4384, !- X,Y,Z Vertex 2 {m}
  6.46578440716979, 0, 2.4384,            !- X,Y,Z Vertex 3 {m}
  3.2328922035849, 0, 4.05484610179245;   !- X,Y,Z Vertex 4 {m}

OS:Surface,
  {bc619151-6621-43fc-ae98-4105281540d5}, !- Handle
  Surface 10,                             !- Name
  Wall,                                   !- Surface Type
  ,                                       !- Construction Name
  {d0b7be71-ef99-4133-9b14-2422e44c9856}, !- Space Name
  Outdoors,                               !- Outside Boundary Condition
  ,                                       !- Outside Boundary Condition Object
  SunExposed,                             !- Sun Exposure
  WindExposed,                            !- Wind Exposure
  ,                                       !- View Factor to Ground
  ,                                       !- Number of Vertices
  3.2328922035849, -12.9315688143396, 4.05484610179245, !- X,Y,Z Vertex 1 {m}
  0, -12.9315688143396, 2.4384,           !- X,Y,Z Vertex 2 {m}
  6.46578440716979, -12.9315688143396, 2.4384; !- X,Y,Z Vertex 3 {m}

OS:Surface,
  {b3012752-39c3-4d8a-a4d7-432a75e1461c}, !- Handle
  Surface 11,                             !- Name
  Wall,                                   !- Surface Type
  ,                                       !- Construction Name
  {d0b7be71-ef99-4133-9b14-2422e44c9856}, !- Space Name
  Outdoors,                               !- Outside Boundary Condition
  ,                                       !- Outside Boundary Condition Object
  SunExposed,                             !- Sun Exposure
  WindExposed,                            !- Wind Exposure
  ,                                       !- View Factor to Ground
  ,                                       !- Number of Vertices
  3.2328922035849, 0, 4.05484610179245,   !- X,Y,Z Vertex 1 {m}
  6.46578440716979, 0, 2.4384,            !- X,Y,Z Vertex 2 {m}
  0, 0, 2.4384;                           !- X,Y,Z Vertex 3 {m}

OS:ThermalZone,
  {11f7da0a-28a6-4848-bdce-670d2965ab89}, !- Handle
  living zone|unit 2,                     !- Name
  ,                                       !- Multiplier
  ,                                       !- Ceiling Height {m}
  ,                                       !- Volume {m3}
  ,                                       !- Floor Area {m2}
  ,                                       !- Zone Inside Convection Algorithm
  ,                                       !- Zone Outside Convection Algorithm
  ,                                       !- Zone Conditioning Equipment List Name
  {fc73977e-e940-47c1-a450-43829ed674dc}, !- Zone Air Inlet Port List
  {1e853d0d-e3cf-49b3-b13a-24ffa45407eb}, !- Zone Air Exhaust Port List
  {28f6b7e4-11d2-46d3-b954-e3c080e46985}, !- Zone Air Node Name
  ,                                       !- Zone Return Air Node Name
  ,                                       !- Primary Daylighting Control Name
  ,                                       !- Fraction of Zone Controlled by Primary Daylighting Control
  ,                                       !- Secondary Daylighting Control Name
  ,                                       !- Fraction of Zone Controlled by Secondary Daylighting Control
  ,                                       !- Illuminance Map Name
  ,                                       !- Group Rendering Name
  ,                                       !- Thermostat Name
  No;                                     !- Use Ideal Air Loads

OS:Node,
  {cb438128-988a-44e0-a9ea-a4702f80783c}, !- Handle
  Node 2,                                 !- Name
  {28f6b7e4-11d2-46d3-b954-e3c080e46985}, !- Inlet Port
  ;                                       !- Outlet Port

OS:Connection,
  {28f6b7e4-11d2-46d3-b954-e3c080e46985}, !- Handle
  {a59ea5e1-03ca-4aa7-8a12-30ca198c95f2}, !- Name
  {11f7da0a-28a6-4848-bdce-670d2965ab89}, !- Source Object
  11,                                     !- Outlet Port
  {cb438128-988a-44e0-a9ea-a4702f80783c}, !- Target Object
  2;                                      !- Inlet Port

OS:PortList,
  {fc73977e-e940-47c1-a450-43829ed674dc}, !- Handle
  {f7e99604-517f-4bd4-a84a-4fe02e2af5dd}, !- Name
  {11f7da0a-28a6-4848-bdce-670d2965ab89}; !- HVAC Component

OS:PortList,
  {1e853d0d-e3cf-49b3-b13a-24ffa45407eb}, !- Handle
  {81a6fc52-9932-4576-b03f-6873a0940e81}, !- Name
  {11f7da0a-28a6-4848-bdce-670d2965ab89}; !- HVAC Component

OS:Sizing:Zone,
  {f3c8d985-86b2-4664-a2fe-aefca5db9ddc}, !- Handle
  {11f7da0a-28a6-4848-bdce-670d2965ab89}, !- Zone or ZoneList Name
  SupplyAirTemperature,                   !- Zone Cooling Design Supply Air Temperature Input Method
  14,                                     !- Zone Cooling Design Supply Air Temperature {C}
  11.11,                                  !- Zone Cooling Design Supply Air Temperature Difference {deltaC}
  SupplyAirTemperature,                   !- Zone Heating Design Supply Air Temperature Input Method
  40,                                     !- Zone Heating Design Supply Air Temperature {C}
  11.11,                                  !- Zone Heating Design Supply Air Temperature Difference {deltaC}
  0.0085,                                 !- Zone Cooling Design Supply Air Humidity Ratio {kg-H2O/kg-air}
  0.008,                                  !- Zone Heating Design Supply Air Humidity Ratio {kg-H2O/kg-air}
  ,                                       !- Zone Heating Sizing Factor
  ,                                       !- Zone Cooling Sizing Factor
  DesignDay,                              !- Cooling Design Air Flow Method
  ,                                       !- Cooling Design Air Flow Rate {m3/s}
  ,                                       !- Cooling Minimum Air Flow per Zone Floor Area {m3/s-m2}
  ,                                       !- Cooling Minimum Air Flow {m3/s}
  ,                                       !- Cooling Minimum Air Flow Fraction
  DesignDay,                              !- Heating Design Air Flow Method
  ,                                       !- Heating Design Air Flow Rate {m3/s}
  ,                                       !- Heating Maximum Air Flow per Zone Floor Area {m3/s-m2}
  ,                                       !- Heating Maximum Air Flow {m3/s}
  ,                                       !- Heating Maximum Air Flow Fraction
  ,                                       !- Design Zone Air Distribution Effectiveness in Cooling Mode
  ,                                       !- Design Zone Air Distribution Effectiveness in Heating Mode
  No,                                     !- Account for Dedicated Outdoor Air System
  NeutralSupplyAir,                       !- Dedicated Outdoor Air System Control Strategy
  autosize,                               !- Dedicated Outdoor Air Low Setpoint Temperature for Design {C}
  autosize;                               !- Dedicated Outdoor Air High Setpoint Temperature for Design {C}

OS:ZoneHVAC:EquipmentList,
  {9a6c6374-d06e-4290-bbb0-a0864cad7ecc}, !- Handle
  Zone HVAC Equipment List 2,             !- Name
  {11f7da0a-28a6-4848-bdce-670d2965ab89}; !- Thermal Zone

OS:Space,
  {f4c97c94-61cc-4ff1-b0f0-4681d90551a2}, !- Handle
  living space|unit 2,                    !- Name
  {0f2f7797-4349-4846-a215-ab820ec988f7}, !- Space Type Name
  ,                                       !- Default Construction Set Name
  ,                                       !- Default Schedule Set Name
  -0,                                     !- Direction of Relative North {deg}
  0,                                      !- X Origin {m}
  0,                                      !- Y Origin {m}
  0,                                      !- Z Origin {m}
  ,                                       !- Building Story Name
  {11f7da0a-28a6-4848-bdce-670d2965ab89}, !- Thermal Zone Name
  ,                                       !- Part of Total Floor Area
  ,                                       !- Design Specification Outdoor Air Object Name
  {ae8ed2e6-a9b8-4523-a315-f413bc453b93}; !- Building Unit Name

OS:Surface,
  {ec3f45a5-2aed-4acb-9e22-a8e251ca8cf9}, !- Handle
  Surface 12,                             !- Name
  Wall,                                   !- Surface Type
  ,                                       !- Construction Name
  {f4c97c94-61cc-4ff1-b0f0-4681d90551a2}, !- Space Name
  Outdoors,                               !- Outside Boundary Condition
  ,                                       !- Outside Boundary Condition Object
  SunExposed,                             !- Sun Exposure
  WindExposed,                            !- Wind Exposure
  ,                                       !- View Factor to Ground
  ,                                       !- Number of Vertices
  12.9315688143396, 1.8288, 2.4384,       !- X,Y,Z Vertex 1 {m}
  12.9315688143396, 1.8288, 0,            !- X,Y,Z Vertex 2 {m}
  6.46578440716979, 1.8288, 0,            !- X,Y,Z Vertex 3 {m}
  6.46578440716979, 1.8288, 2.4384;       !- X,Y,Z Vertex 4 {m}

OS:Surface,
  {2ef661ef-6431-4fff-8bde-5929c53c13b3}, !- Handle
  Surface 13,                             !- Name
  Wall,                                   !- Surface Type
  ,                                       !- Construction Name
  {f4c97c94-61cc-4ff1-b0f0-4681d90551a2}, !- Space Name
  Surface,                                !- Outside Boundary Condition
  {468c6b2c-896a-4c28-b176-fc2ccaaca681}, !- Outside Boundary Condition Object
  NoSun,                                  !- Sun Exposure
  NoWind,                                 !- Wind Exposure
  ,                                       !- View Factor to Ground
  ,                                       !- Number of Vertices
  6.46578440716979, 0, 2.4384,            !- X,Y,Z Vertex 1 {m}
  6.46578440716979, 0, 0,                 !- X,Y,Z Vertex 2 {m}
  6.46578440716979, -11.1027688143396, 0, !- X,Y,Z Vertex 3 {m}
  6.46578440716979, -11.1027688143396, 2.4384; !- X,Y,Z Vertex 4 {m}

OS:Surface,
  {436f9786-540a-4e85-9da2-f06d30d380a9}, !- Handle
  Surface 14,                             !- Name
  Floor,                                  !- Surface Type
  ,                                       !- Construction Name
  {f4c97c94-61cc-4ff1-b0f0-4681d90551a2}, !- Space Name
  Ground,                                 !- Outside Boundary Condition
  ,                                       !- Outside Boundary Condition Object
  NoSun,                                  !- Sun Exposure
  NoWind,                                 !- Wind Exposure
  ,                                       !- View Factor to Ground
  ,                                       !- Number of Vertices
  6.46578440716979, -11.1027688143396, 0, !- X,Y,Z Vertex 1 {m}
  6.46578440716979, 1.8288, 0,            !- X,Y,Z Vertex 2 {m}
  12.9315688143396, 1.8288, 0,            !- X,Y,Z Vertex 3 {m}
  12.9315688143396, -11.1027688143396, 0; !- X,Y,Z Vertex 4 {m}

OS:Surface,
  {0dca63a7-1193-406d-9450-7741c07e6ac4}, !- Handle
  Surface 15,                             !- Name
  Wall,                                   !- Surface Type
  ,                                       !- Construction Name