!- NOTE: Auto-generated from /test/osw_files/SFD_1000sqft_1story_FB_GRG_UA_DoorArea.osw

OS:Version,
  {c85efd56-9084-425c-a19f-a9f9ebae64b3}, !- Handle
  2.3.1;                                  !- Version Identifier

OS:Building,
  {bf305633-c5a1-4881-9edf-ca5e1a8e1274}, !- Handle
  Building,                               !- Name
  ,                                       !- Building Sector Type
  ,                                       !- North Axis {deg}
  ,                                       !- Nominal Floor to Floor Height {m}
  ,                                       !- Space Type Name
  ,                                       !- Default Construction Set Name
  ,                                       !- Default Schedule Set Name
  2,                                      !- Standards Number of Stories
  1,                                      !- Standards Number of Above Ground Stories
  singlefamilydetached,                   !- Standards Building Type
  1;                                      !- Standards Number of Living Units

OS:YearDescription,
  {513d8dda-86cb-442a-b01c-1f7f0e0ac70e}; !- Handle

OS:SimulationControl,
  {2c487a4c-bac9-4ac5-b669-1e49d9da7c2b}, !- Handle
  ,                                       !- Do Zone Sizing Calculation
  ,                                       !- Do System Sizing Calculation
  ,                                       !- Do Plant Sizing Calculation
  No,                                     !- Run Simulation for Sizing Periods
  ;                                       !- Run Simulation for Weather File Run Periods

OS:Timestep,
  {4ebc9f1e-4707-402e-9844-67eb1ffbd522}, !- Handle
  6;                                      !- Number of Timesteps per Hour

OS:RunPeriod,
  {28df894d-6af9-4fb8-8f56-df1753344aa3}, !- Handle
  Run Period,                             !- Name
  1,                                      !- Begin Month
  1,                                      !- Begin Day of Month
  12,                                     !- End Month
  31,                                     !- End Day of Month
  ,                                       !- Use Weather File Holidays and Special Days
  ,                                       !- Use Weather File Daylight Saving Period
  ,                                       !- Apply Weekend Holiday Rule
  ,                                       !- Use Weather File Rain Indicators
  ,                                       !- Use Weather File Snow Indicators
  ;                                       !- Number of Times Runperiod to be Repeated

OS:Sizing:Parameters,
  {dde5af6f-7923-4600-a28a-7556673a0266}, !- Handle
  1.0,                                    !- Heating Sizing Factor
  1.0;                                    !- Cooling Sizing Factor

OS:ShadowCalculation,
  {ca758bea-4416-4626-9bba-3d8795c79bd6}, !- Handle
  20,                                     !- Calculation Frequency
  200;                                    !- Maximum Figures in Shadow Overlap Calculations

OS:SurfaceConvectionAlgorithm:Inside,
  {aaabfc36-718a-4ab0-b622-f186ebb45230}, !- Handle
  TARP;                                   !- Algorithm

OS:SurfaceConvectionAlgorithm:Outside,
  {9a0a9f6f-4bbd-4b12-a121-9492a1fcd7d6}, !- Handle
  DOE-2;                                  !- Algorithm

OS:HeatBalanceAlgorithm,
  {9d93e563-e1e0-46d7-9e39-d1c8aceb7212}, !- Handle
  ConductionTransferFunction,             !- Algorithm
  200;                                    !- Surface Temperature Upper Limit {C}

OS:ZoneCapacitanceMultiplier:ResearchSpecial,
  {6bfced16-b16f-47f6-8223-f7e267d75d19}, !- Handle
  ,                                       !- Temperature Capacity Multiplier
  15,                                     !- Humidity Capacity Multiplier
  ;                                       !- Carbon Dioxide Capacity Multiplier

OS:ThermalZone,
  {2984e9f1-5ed4-4c59-9c07-5ddee3a6ff63}, !- Handle
  living zone,                            !- Name
  ,                                       !- Multiplier
  ,                                       !- Ceiling Height {m}
  ,                                       !- Volume {m3}
  ,                                       !- Floor Area {m2}
  ,                                       !- Zone Inside Convection Algorithm
  ,                                       !- Zone Outside Convection Algorithm
  ,                                       !- Zone Conditioning Equipment List Name
  {ba916da5-3664-4960-9dc3-eeb211513ead}, !- Zone Air Inlet Port List
  {3f6d9211-db64-4bc8-81c7-2fb8f5fa0038}, !- Zone Air Exhaust Port List
  {4035eb64-d051-4250-b6c7-7e2eb791550a}, !- Zone Air Node Name
  ,                                       !- Zone Return Air Node Name
  ,                                       !- Primary Daylighting Control Name
  ,                                       !- Fraction of Zone Controlled by Primary Daylighting Control
  ,                                       !- Secondary Daylighting Control Name
  ,                                       !- Fraction of Zone Controlled by Secondary Daylighting Control
  ,                                       !- Illuminance Map Name
  ,                                       !- Group Rendering Name
  ,                                       !- Thermostat Name
  No;                                     !- Use Ideal Air Loads

OS:Node,
  {ab8c6db4-6cee-4b5c-8159-33d69ccbe305}, !- Handle
  Node 1,                                 !- Name
  {4035eb64-d051-4250-b6c7-7e2eb791550a}, !- Inlet Port
  ;                                       !- Outlet Port

OS:Connection,
  {4035eb64-d051-4250-b6c7-7e2eb791550a}, !- Handle
  {21c355a2-8122-4714-a487-e2559fcd98c5}, !- Name
  {2984e9f1-5ed4-4c59-9c07-5ddee3a6ff63}, !- Source Object
  11,                                     !- Outlet Port
  {ab8c6db4-6cee-4b5c-8159-33d69ccbe305}, !- Target Object
  2;                                      !- Inlet Port

OS:PortList,
  {ba916da5-3664-4960-9dc3-eeb211513ead}, !- Handle
  {15c82e06-0652-461d-bbbc-255678b40755}, !- Name
  {2984e9f1-5ed4-4c59-9c07-5ddee3a6ff63}; !- HVAC Component

OS:PortList,
  {3f6d9211-db64-4bc8-81c7-2fb8f5fa0038}, !- Handle
  {8fdb8715-9ef3-4f92-b124-f0383e89bcf8}, !- Name
  {2984e9f1-5ed4-4c59-9c07-5ddee3a6ff63}; !- HVAC Component

OS:Sizing:Zone,
  {78a6b524-187b-4121-a04c-2d6f57403584}, !- Handle
  {2984e9f1-5ed4-4c59-9c07-5ddee3a6ff63}, !- Zone or ZoneList Name
  SupplyAirTemperature,                   !- Zone Cooling Design Supply Air Temperature Input Method
  14,                                     !- Zone Cooling Design Supply Air Temperature {C}
  11.11,                                  !- Zone Cooling Design Supply Air Temperature Difference {deltaC}
  SupplyAirTemperature,                   !- Zone Heating Design Supply Air Temperature Input Method
  40,                                     !- Zone Heating Design Supply Air Temperature {C}
  11.11,                                  !- Zone Heating Design Supply Air Temperature Difference {deltaC}
  0.0085,                                 !- Zone Cooling Design Supply Air Humidity Ratio {kg-H2O/kg-air}
  0.008,                                  !- Zone Heating Design Supply Air Humidity Ratio {kg-H2O/kg-air}
  ,                                       !- Zone Heating Sizing Factor
  ,                                       !- Zone Cooling Sizing Factor
  DesignDay,                              !- Cooling Design Air Flow Method
  ,                                       !- Cooling Design Air Flow Rate {m3/s}
  ,                                       !- Cooling Minimum Air Flow per Zone Floor Area {m3/s-m2}
  ,                                       !- Cooling Minimum Air Flow {m3/s}
  ,                                       !- Cooling Minimum Air Flow Fraction
  DesignDay,                              !- Heating Design Air Flow Method
  ,                                       !- Heating Design Air Flow Rate {m3/s}
  ,                                       !- Heating Maximum Air Flow per Zone Floor Area {m3/s-m2}
  ,                                       !- Heating Maximum Air Flow {m3/s}
  ,                                       !- Heating Maximum Air Flow Fraction
  ,                                       !- Design Zone Air Distribution Effectiveness in Cooling Mode
  ,                                       !- Design Zone Air Distribution Effectiveness in Heating Mode
  No,                                     !- Account for Dedicated Outdoor Air System
  NeutralSupplyAir,                       !- Dedicated Outdoor Air System Control Strategy
  autosize,                               !- Dedicated Outdoor Air Low Setpoint Temperature for Design {C}
  autosize;                               !- Dedicated Outdoor Air High Setpoint Temperature for Design {C}

OS:ZoneHVAC:EquipmentList,
  {c8ac29a5-78a5-4304-bb71-b784493e2171}, !- Handle
  Zone HVAC Equipment List 1,             !- Name
  {2984e9f1-5ed4-4c59-9c07-5ddee3a6ff63}; !- Thermal Zone

OS:ThermalZone,
  {f07cb2d3-cb82-49ab-9f84-1481f2e61f7f}, !- Handle
  garage zone,                            !- Name
  ,                                       !- Multiplier
  ,                                       !- Ceiling Height {m}
  ,                                       !- Volume {m3}
  ,                                       !- Floor Area {m2}
  ,                                       !- Zone Inside Convection Algorithm
  ,                                       !- Zone Outside Convection Algorithm
  ,                                       !- Zone Conditioning Equipment List Name
  {fc41100d-d0c5-4480-81a7-b212e61ce3e7}, !- Zone Air Inlet Port List
  {0ea77f45-e1c0-43e9-84b0-4a0f14ae84f7}, !- Zone Air Exhaust Port List
  {6a9cbff5-6340-43d5-a883-e32b0bd81aef}, !- Zone Air Node Name
  ,                                       !- Zone Return Air Node Name
  ,                                       !- Primary Daylighting Control Name
  ,                                       !- Fraction of Zone Controlled by Primary Daylighting Control
  ,                                       !- Secondary Daylighting Control Name
  ,                                       !- Fraction of Zone Controlled by Secondary Daylighting Control
  ,                                       !- Illuminance Map Name
  ,                                       !- Group Rendering Name
  ,                                       !- Thermostat Name
  No;                                     !- Use Ideal Air Loads

OS:Node,
  {3fc55af8-4342-493d-a3f1-027003160e6f}, !- Handle
  Node 2,                                 !- Name
  {6a9cbff5-6340-43d5-a883-e32b0bd81aef}, !- Inlet Port
  ;                                       !- Outlet Port

OS:Connection,
  {6a9cbff5-6340-43d5-a883-e32b0bd81aef}, !- Handle
  {0755925a-0c81-41d2-8a39-7c774cc35740}, !- Name
  {f07cb2d3-cb82-49ab-9f84-1481f2e61f7f}, !- Source Object
  11,                                     !- Outlet Port
  {3fc55af8-4342-493d-a3f1-027003160e6f}, !- Target Object
  2;                                      !- Inlet Port

OS:PortList,
  {fc41100d-d0c5-4480-81a7-b212e61ce3e7}, !- Handle
  {a35e1b0b-3734-47ac-be8d-0f4df8b697f5}, !- Name
  {f07cb2d3-cb82-49ab-9f84-1481f2e61f7f}; !- HVAC Component

OS:PortList,
  {0ea77f45-e1c0-43e9-84b0-4a0f14ae84f7}, !- Handle
  {e3231125-1613-4650-a9a9-c7e334abb12e}, !- Name
  {f07cb2d3-cb82-49ab-9f84-1481f2e61f7f}; !- HVAC Component

OS:Sizing:Zone,
  {f30a0330-e73f-4001-a85b-006f78bb5236}, !- Handle
  {f07cb2d3-cb82-49ab-9f84-1481f2e61f7f}, !- Zone or ZoneList Name
  SupplyAirTemperature,                   !- Zone Cooling Design Supply Air Temperature Input Method
  14,                                     !- Zone Cooling Design Supply Air Temperature {C}
  11.11,                                  !- Zone Cooling Design Supply Air Temperature Difference {deltaC}
  SupplyAirTemperature,                   !- Zone Heating Design Supply Air Temperature Input Method
  40,                                     !- Zone Heating Design Supply Air Temperature {C}
  11.11,                                  !- Zone Heating Design Supply Air Temperature Difference {deltaC}
  0.0085,                                 !- Zone Cooling Design Supply Air Humidity Ratio {kg-H2O/kg-air}
  0.008,                                  !- Zone Heating Design Supply Air Humidity Ratio {kg-H2O/kg-air}
  ,                                       !- Zone Heating Sizing Factor
  ,                                       !- Zone Cooling Sizing Factor
  DesignDay,                              !- Cooling Design Air Flow Method
  ,                                       !- Cooling Design Air Flow Rate {m3/s}
  ,                                       !- Cooling Minimum Air Flow per Zone Floor Area {m3/s-m2}
  ,                                       !- Cooling Minimum Air Flow {m3/s}
  ,                                       !- Cooling Minimum Air Flow Fraction
  DesignDay,                              !- Heating Design Air Flow Method
  ,                                       !- Heating Design Air Flow Rate {m3/s}
  ,                                       !- Heating Maximum Air Flow per Zone Floor Area {m3/s-m2}
  ,                                       !- Heating Maximum Air Flow {m3/s}
  ,                                       !- Heating Maximum Air Flow Fraction
  ,                                       !- Design Zone Air Distribution Effectiveness in Cooling Mode
  ,                                       !- Design Zone Air Distribution Effectiveness in Heating Mode
  No,                                     !- Account for Dedicated Outdoor Air System
  NeutralSupplyAir,                       !- Dedicated Outdoor Air System Control Strategy
  autosize,                               !- Dedicated Outdoor Air Low Setpoint Temperature for Design {C}
  autosize;                               !- Dedicated Outdoor Air High Setpoint Temperature for Design {C}

OS:ZoneHVAC:EquipmentList,
  {11bf7258-1e04-49a3-a7ea-3a28b05f22f2}, !- Handle
  Zone HVAC Equipment List 2,             !- Name
  {f07cb2d3-cb82-49ab-9f84-1481f2e61f7f}; !- Thermal Zone

OS:Space,
  {de271062-3664-4646-be11-ce902a8b1c61}, !- Handle
  garage space,                           !- Name
  ,                                       !- Space Type Name
  ,                                       !- Default Construction Set Name
  ,                                       !- Default Schedule Set Name
  -0,                                     !- Direction of Relative North {deg}
  0,                                      !- X Origin {m}
  0,                                      !- Y Origin {m}
  0,                                      !- Z Origin {m}
  ,                                       !- Building Story Name
  {f07cb2d3-cb82-49ab-9f84-1481f2e61f7f}, !- Thermal Zone Name
  ,                                       !- Part of Total Floor Area
  ,                                       !- Design Specification Outdoor Air Object Name
  {2f603cd2-33bd-4d1b-a2b2-63c1491ff28d}; !- Building Unit Name

OS:Surface,
  {ee12d4cc-07b4-4fba-8d8b-50919fbe7bfb}, !- Handle
  Surface 1,                              !- Name
  Floor,                                  !- Surface Type
  ,                                       !- Construction Name
  {de271062-3664-4646-be11-ce902a8b1c61}, !- Space Name
  Ground,                                 !- Outside Boundary Condition
  ,                                       !- Outside Boundary Condition Object
  NoSun,                                  !- Sun Exposure
  NoWind,                                 !- Wind Exposure
  ,                                       !- View Factor to Ground
  ,                                       !- Number of Vertices
  1.51135555430162, -3.6576, 0,           !- X,Y,Z Vertex 1 {m}
  1.51135555430162, 3.6576, 0,            !- X,Y,Z Vertex 2 {m}
  12.4841555543016, 3.6576, 0,            !- X,Y,Z Vertex 3 {m}
  12.4841555543016, -3.6576, 0;           !- X,Y,Z Vertex 4 {m}

OS:Surface,
  {b24600c2-1526-40e5-b2a6-fb5521e2aa7d}, !- Handle
  Surface 2,                              !- Name
  Wall,                                   !- Surface Type
  ,                                       !- Construction Name
  {de271062-3664-4646-be11-ce902a8b1c61}, !- Space Name
  Surface,                                !- Outside Boundary Condition
  {00207803-e68f-4532-be19-cdd2554f83af}, !- Outside Boundary Condition Object
  NoSun,                                  !- Sun Exposure
  NoWind,                                 !- Wind Exposure
  ,                                       !- View Factor to Ground
  ,                                       !- Number of Vertices
  1.51135555430162, 3.6576, 2.4384,       !- X,Y,Z Vertex 1 {m}
  1.51135555430162, 3.6576, 0,            !- X,Y,Z Vertex 2 {m}
  1.51135555430162, 0, 0,                 !- X,Y,Z Vertex 3 {m}
  1.51135555430162, 0, 2.4384;            !- X,Y,Z Vertex 4 {m}

OS:Surface,
  {f790da36-c7f4-4028-a279-d85d90a01dc3}, !- Handle
  Surface 3,                              !- Name
  Wall,                                   !- Surface Type
  ,                                       !- Construction Name
  {de271062-3664-4646-be11-ce902a8b1c61}, !- Space Name
  Surface,                                !- Outside Boundary Condition
  {b14b3a55-6289-4411-9a04-06e279eebfc0}, !- Outside Boundary Condition Object
  NoSun,                                  !- Sun Exposure
  NoWind,                                 !- Wind Exposure
  ,                                       !- View Factor to Ground
  ,                                       !- Number of Vertices
  12.4841555543016, 3.6576, 2.4384,       !- X,Y,Z Vertex 1 {m}
  12.4841555543016, 3.6576, 0,            !- X,Y,Z Vertex 2 {m}
  1.51135555430162, 3.6576, 0,            !- X,Y,Z Vertex 3 {m}
  1.51135555430162, 3.6576, 2.4384;       !- X,Y,Z Vertex 4 {m}

OS:Surface,
  {017f5519-a666-4629-8c89-efcbf65121fd}, !- Handle
  Surface 4,                              !- Name
  Wall,                                   !- Surface Type
  ,                                       !- Construction Name
  {de271062-3664-4646-be11-ce902a8b1c61}, !- Space Name
  Outdoors,                               !- Outside Boundary Condition
  ,                                       !- Outside Boundary Condition Object
  SunExposed,                             !- Sun Exposure
  WindExposed,                            !- Wind Exposure
  ,                                       !- View Factor to Ground
  ,                                       !- Number of Vertices
  12.4841555543016, -3.6576, 2.4384,      !- X,Y,Z Vertex 1 {m}
  12.4841555543016, -3.6576, 0,           !- X,Y,Z Vertex 2 {m}
  12.4841555543016, 3.6576, 0,            !- X,Y,Z Vertex 3 {m}
  12.4841555543016, 3.6576, 2.4384;       !- X,Y,Z Vertex 4 {m}

OS:Surface,
  {f99a06b2-cd42-49bb-ba29-f8feeacb53aa}, !- Handle
  Surface 5,                              !- Name
  Wall,                                   !- Surface Type
  ,                                       !- Construction Name
  {de271062-3664-4646-be11-ce902a8b1c61}, !- Space Name
  Outdoors,                               !- Outside Boundary Condition
  ,                                       !- Outside Boundary Condition Object
  SunExposed,                             !- Sun Exposure
  WindExposed,                            !- Wind Exposure
  ,                                       !- View Factor to Ground
  ,                                       !- Number of Vertices
  1.51135555430162, -3.6576, 2.4384,      !- X,Y,Z Vertex 1 {m}
  1.51135555430162, -3.6576, 0,           !- X,Y,Z Vertex 2 {m}
  12.4841555543016, -3.6576, 0,           !- X,Y,Z Vertex 3 {m}
  12.4841555543016, -3.6576, 2.4384;      !- X,Y,Z Vertex 4 {m}

OS:Surface,
  {18a1150a-5e89-4b3f-866d-9d8f96eb9ab9}, !- Handle
  Surface 6,                              !- Name
  RoofCeiling,                            !- Surface Type
  ,                                       !- Construction Name
  {de271062-3664-4646-be11-ce902a8b1c61}, !- Space Name
  Surface,                                !- Outside Boundary Condition
  {abb4073e-79fa-4748-a3c1-8c59240f33d2}, !- Outside Boundary Condition Object
  NoSun,                                  !- Sun Exposure
  NoWind,                                 !- Wind Exposure
  ,                                       !- View Factor to Ground
  ,                                       !- Number of Vertices
  12.4841555543016, 0, 2.4384,            !- X,Y,Z Vertex 1 {m}
  12.4841555543016, 3.6576, 2.4384,       !- X,Y,Z Vertex 2 {m}
  1.51135555430162, 3.6576, 2.4384,       !- X,Y,Z Vertex 3 {m}
  1.51135555430162, 0, 2.4384;            !- X,Y,Z Vertex 4 {m}

OS:Space,
  {49231c1c-2e94-4a70-abe0-a3af6031bd9b}, !- Handle
  living space,                           !- Name
  ,                                       !- Space Type Name
  ,                                       !- Default Construction Set Name
  ,                                       !- Default Schedule Set Name
  -0,                                     !- Direction of Relative North {deg}
  0,                                      !- X Origin {m}
  0,                                      !- Y Origin {m}
  0,                                      !- Z Origin {m}
  ,                                       !- Building Story Name
  {2984e9f1-5ed4-4c59-9c07-5ddee3a6ff63}, !- Thermal Zone Name
  ,                                       !- Part of Total Floor Area
  ,                                       !- Design Specification Outdoor Air Object Name
  {2f603cd2-33bd-4d1b-a2b2-63c1491ff28d}; !- Building Unit Name

OS:Surface,
  {50e4dac5-98e1-4ac0-a038-8bec1e9de824}, !- Handle
  Surface 7,                              !- Name
  Floor,                                  !- Surface Type
  ,                                       !- Construction Name
  {49231c1c-2e94-4a70-abe0-a3af6031bd9b}, !- Space Name
  Surface,                                !- Outside Boundary Condition
  {5f065c5c-99be-4838-b2d2-6d58a9e1479e}, !- Outside Boundary Condition Object
  NoSun,                                  !- Sun Exposure
  NoWind,                                 !- Wind Exposure
  ,                                       !- View Factor to Ground
  ,                                       !- Number of Vertices
  0, 0, 0,                                !- X,Y,Z Vertex 1 {m}
  0, 6.93564197461201, 0,                 !- X,Y,Z Vertex 2 {m}
  12.4841555543016, 6.93564197461201, 0,  !- X,Y,Z Vertex 3 {m}
  12.4841555543016, 3.6576, 0,            !- X,Y,Z Vertex 4 {m}
  1.51135555430162, 3.6576, 0,            !- X,Y,Z Vertex 5 {m}
  1.51135555430162, 0, 0;                 !- X,Y,Z Vertex 6 {m}

OS:Surface,
  {aa586a38-8506-446d-b82e-3cb2951a09b0}, !- Handle
  Surface 8,                              !- Name
  Wall,                                   !- Surface Type
  ,                                       !- Construction Name
  {49231c1c-2e94-4a70-abe0-a3af6031bd9b}, !- Space Name
  Outdoors,                               !- Outside Boundary Condition
  ,                                       !- Outside Boundary Condition Object
  SunExposed,                             !- Sun Exposure
  WindExposed,                            !- Wind Exposure
  ,                                       !- View Factor to Ground
  ,                                       !- Number of Vertices
  0, 6.93564197461201, 2.4384,            !- X,Y,Z Vertex 1 {m}
  0, 6.93564197461201, 0,                 !- X,Y,Z Vertex 2 {m}
  0, 0, 0,                                !- X,Y,Z Vertex 3 {m}
  0, 0, 2.4384;                           !- X,Y,Z Vertex 4 {m}

OS:Surface,
  {ca051c0a-aa30-4af8-a5d3-33d16acb825a}, !- Handle
  Surface 9,                              !- Name
  Wall,                                   !- Surface Type
  ,                                       !- Construction Name
  {49231c1c-2e94-4a70-abe0-a3af6031bd9b}, !- Space Name
  Outdoors,                               !- Outside Boundary Condition
  ,                                       !- Outside Boundary Condition Object
  SunExposed,                             !- Sun Exposure
  WindExposed,                            !- Wind Exposure
  ,                                       !- View Factor to Ground
  ,                                       !- Number of Vertices
  12.4841555543016, 6.93564197461201, 2.4384, !- X,Y,Z Vertex 1 {m}
  12.4841555543016, 6.93564197461201, 0,  !- X,Y,Z Vertex 2 {m}
  0, 6.93564197461201, 0,                 !- X,Y,Z Vertex 3 {m}
  0, 6.93564197461201, 2.4384;            !- X,Y,Z Vertex 4 {m}

OS:Surface,
  {93d4a54f-6e32-4c03-9e40-44f1e291ee10}, !- Handle
  Surface 10,                             !- Name
  Wall,                                   !- Surface Type
  ,                                       !- Construction Name
  {49231c1c-2e94-4a70-abe0-a3af6031bd9b}, !- Space Name
  Outdoors,                               !- Outside Boundary Condition
  ,                                       !- Outside Boundary Condition Object
  SunExposed,                             !- Sun Exposure
  WindExposed,                            !- Wind Exposure
  ,                                       !- View Factor to Ground
  ,                                       !- Number of Vertices
  12.4841555543016, 3.6576, 2.4384,       !- X,Y,Z Vertex 1 {m}
  12.4841555543016, 3.6576, 0,            !- X,Y,Z Vertex 2 {m}
  12.4841555543016, 6.93564197461201, 0,  !- X,Y,Z Vertex 3 {m}
  12.4841555543016, 6.93564197461201, 2.4384; !- X,Y,Z Vertex 4 {m}

OS:Surface,
  {b14b3a55-6289-4411-9a04-06e279eebfc0}, !- Handle
  Surface 11,                             !- Name
  Wall,                                   !- Surface Type
  ,                                       !- Construction Name
  {49231c1c-2e94-4a70-abe0-a3af6031bd9b}, !- Space Name
  Surface,                                !- Outside Boundary Condition
  {f790da36-c7f4-4028-a279-d85d90a01dc3}, !- Outside Boundary Condition Object
  NoSun,                                  !- Sun Exposure
  NoWind,                                 !- Wind Exposure
  ,                                       !- View Factor to Ground
  ,                                       !- Number of Vertices
  1.51135555430162, 3.6576, 2.4384,       !- X,Y,Z Vertex 1 {m}
  1.51135555430162, 3.6576, 0,            !- X,Y,Z Vertex 2 {m}
  12.4841555543016, 3.6576, 0,            !- X,Y,Z Vertex 3 {m}
  12.4841555543016, 3.6576, 2.4384;       !- X,Y,Z Vertex 4 {m}

OS:Surface,
  {00207803-e68f-4532-be19-cdd2554f83af}, !- Handle
  Surface 12,                             !- Name
  Wall,                                   !- Surface Type
  ,                                       !- Construction Name
  {49231c1c-2e94-4a70-abe0-a3af6031bd9b}, !- Space Name
  Surface,                                !- Outside Boundary Condition
  {b24600c2-1526-40e5-b2a6-fb5521e2aa7d}, !- Outside Boundary Condition Object
  NoSun,                                  !- Sun Exposure
  NoWind,                                 !- Wind Exposure
  ,                                       !- View Factor to Ground
  ,                                       !- Number of Vertices
  1.51135555430162, 0, 2.4384,            !- X,Y,Z Vertex 1 {m}
  1.51135555430162, 0, 0,                 !- X,Y,Z Vertex 2 {m}
  1.51135555430162, 3.6576, 0,            !- X,Y,Z Vertex 3 {m}
  1.51135555430162, 3.6576, 2.4384;       !- X,Y,Z Vertex 4 {m}

OS:Surface,
  {a0539566-3d20-4314-95ed-91427d648c3e}, !- Handle
  Surface 13,                             !- Name
  Wall,                                   !- Surface Type
  ,                                       !- Construction Name
  {49231c1c-2e94-4a70-abe0-a3af6031bd9b}, !- Space Name
  Outdoors,                               !- Outside Boundary Condition
  ,                                       !- Outside Boundary Condition Object
  SunExposed,                             !- Sun Exposure
  WindExposed,                            !- Wind Exposure
  ,                                       !- View Factor to Ground
  ,                                       !- Number of Vertices
  0, 0, 2.4384,                           !- X,Y,Z Vertex 1 {m}
  0, 0, 0,                                !- X,Y,Z Vertex 2 {m}
  1.51135555430162, 0, 0,                 !- X,Y,Z Vertex 3 {m}
  1.51135555430162, 0, 2.4384;            !- X,Y,Z Vertex 4 {m}

OS:Surface,
  {76905429-a3f6-49cf-a4c2-672e83758323}, !- Handle
  Surface 14,                             !- Name
  RoofCeiling,                            !- Surface Type
  ,                                       !- Construction Name
  {49231c1c-2e94-4a70-abe0-a3af6031bd9b}, !- Space Name
  Surface,                                !- Outside Boundary Condition
  {66a4ac96-c8a3-4631-9e78-19dbb250e787}, !- Outside Boundary Condition Object
  NoSun,                                  !- Sun Exposure
  NoWind,                                 !- Wind Exposure
  ,                                       !- View Factor to Ground
  ,                                       !- Number of Vertices
  1.51135555430162, 0, 2.4384,            !- X,Y,Z Vertex 1 {m}
  1.51135555430162, 3.6576, 2.4384,       !- X,Y,Z Vertex 2 {m}
  12.4841555543016, 3.6576, 2.4384,       !- X,Y,Z Vertex 3 {m}
  12.4841555543016, 6.93564197461201, 2.4384, !- X,Y,Z Vertex 4 {m}
  0, 6.93564197461201, 2.4384,            !- X,Y,Z Vertex 5 {m}
  0, 0, 2.4384;                           !- X,Y,Z Vertex 6 {m}

OS:Surface,
  {abb4073e-79fa-4748-a3c1-8c59240f33d2}, !- Handle
  Surface 15,                             !- Name
  Floor,                                  !- Surface Type
  ,                                       !- Construction Name
  {824f17a9-fa86-4370-a40c-02fbabbfca39}, !- Space Name
  Surface,                                !- Outside Boundary Condition
  {18a1150a-5e89-4b3f-866d-9d8f96eb9ab9}, !- Outside Boundary Condition Object
  NoSun,                                  !- Sun Exposure