!- NOTE: Auto-generated from /test/osw_files/SFD_2000sqft_2story_SL_UA_3Beds_2Baths_Denver_ASHP_NoSetpoints.osw

OS:Version,
  {451844b9-048c-40c0-800c-affbc78909e1}, !- Handle
  2.4.0;                                  !- Version Identifier

OS:Building,
  {bf305633-c5a1-4881-9edf-ca5e1a8e1274}, !- Handle
  Building,                               !- Name
  ,                                       !- Building Sector Type
  ,                                       !- North Axis {deg}
  ,                                       !- Nominal Floor to Floor Height {m}
  ,                                       !- Space Type Name
  ,                                       !- Default Construction Set Name
  ,                                       !- Default Schedule Set Name
  2,                                      !- Standards Number of Stories
  2,                                      !- Standards Number of Above Ground Stories
  singlefamilydetached,                   !- Standards Building Type
  1;                                      !- Standards Number of Living Units

OS:YearDescription,
  {513d8dda-86cb-442a-b01c-1f7f0e0ac70e}; !- Handle

OS:SimulationControl,
  {2c487a4c-bac9-4ac5-b669-1e49d9da7c2b}, !- Handle
  ,                                       !- Do Zone Sizing Calculation
  ,                                       !- Do System Sizing Calculation
  ,                                       !- Do Plant Sizing Calculation
  No,                                     !- Run Simulation for Sizing Periods
  ;                                       !- Run Simulation for Weather File Run Periods

OS:Timestep,
  {4ebc9f1e-4707-402e-9844-67eb1ffbd522}, !- Handle
  6;                                      !- Number of Timesteps per Hour

OS:RunPeriod,
  {28df894d-6af9-4fb8-8f56-df1753344aa3}, !- Handle
  Run Period,                             !- Name
  1,                                      !- Begin Month
  1,                                      !- Begin Day of Month
  12,                                     !- End Month
  31,                                     !- End Day of Month
  ,                                       !- Use Weather File Holidays and Special Days
  ,                                       !- Use Weather File Daylight Saving Period
  ,                                       !- Apply Weekend Holiday Rule
  ,                                       !- Use Weather File Rain Indicators
  ,                                       !- Use Weather File Snow Indicators
  ;                                       !- Number of Times Runperiod to be Repeated

OS:Sizing:Parameters,
  {dde5af6f-7923-4600-a28a-7556673a0266}, !- Handle
  1.0,                                    !- Heating Sizing Factor
  1.0;                                    !- Cooling Sizing Factor

OS:ShadowCalculation,
  {ca758bea-4416-4626-9bba-3d8795c79bd6}, !- Handle
  20,                                     !- Calculation Frequency
  200;                                    !- Maximum Figures in Shadow Overlap Calculations

OS:SurfaceConvectionAlgorithm:Inside,
  {aaabfc36-718a-4ab0-b622-f186ebb45230}, !- Handle
  TARP;                                   !- Algorithm

OS:SurfaceConvectionAlgorithm:Outside,
  {9a0a9f6f-4bbd-4b12-a121-9492a1fcd7d6}, !- Handle
  DOE-2;                                  !- Algorithm

OS:HeatBalanceAlgorithm,
  {9d93e563-e1e0-46d7-9e39-d1c8aceb7212}, !- Handle
  ConductionTransferFunction,             !- Algorithm
  200;                                    !- Surface Temperature Upper Limit {C}

OS:ZoneCapacitanceMultiplier:ResearchSpecial,
  {6bfced16-b16f-47f6-8223-f7e267d75d19}, !- Handle
  ,                                       !- Temperature Capacity Multiplier
  15,                                     !- Humidity Capacity Multiplier
  ;                                       !- Carbon Dioxide Capacity Multiplier

OS:ThermalZone,
  {f566d99a-440c-4f96-94c4-98f269bc6555}, !- Handle
  living zone,                            !- Name
  ,                                       !- Multiplier
  ,                                       !- Ceiling Height {m}
  ,                                       !- Volume {m3}
  ,                                       !- Floor Area {m2}
  ,                                       !- Zone Inside Convection Algorithm
  ,                                       !- Zone Outside Convection Algorithm
  ,                                       !- Zone Conditioning Equipment List Name
  {0a7874e0-6452-4e56-b66e-d1d1e82656a2}, !- Zone Air Inlet Port List
  {8ee62cae-d944-442f-aedc-4ee4835416ba}, !- Zone Air Exhaust Port List
  {1ba72e5d-ca5f-4c1e-baed-7d3da627f114}, !- Zone Air Node Name
  {7d834bd9-3ffe-4c86-90e5-9bd059cc7521}, !- Zone Return Air Node Name
  ,                                       !- Primary Daylighting Control Name
  ,                                       !- Fraction of Zone Controlled by Primary Daylighting Control
  ,                                       !- Secondary Daylighting Control Name
  ,                                       !- Fraction of Zone Controlled by Secondary Daylighting Control
  ,                                       !- Illuminance Map Name
  ,                                       !- Group Rendering Name
  ,                                       !- Thermostat Name
  No;                                     !- Use Ideal Air Loads

OS:Node,
  {f7abab54-e4ee-48b7-a531-f896926a6657}, !- Handle
  Node 1,                                 !- Name
  {1ba72e5d-ca5f-4c1e-baed-7d3da627f114}, !- Inlet Port
  ;                                       !- Outlet Port

OS:Connection,
  {1ba72e5d-ca5f-4c1e-baed-7d3da627f114}, !- Handle
  {7e184110-aeae-4e2a-9f60-f616a982765c}, !- Name
  {f566d99a-440c-4f96-94c4-98f269bc6555}, !- Source Object
  11,                                     !- Outlet Port
  {f7abab54-e4ee-48b7-a531-f896926a6657}, !- Target Object
  2;                                      !- Inlet Port

OS:PortList,
  {0a7874e0-6452-4e56-b66e-d1d1e82656a2}, !- Handle
  {9c676c88-11d5-45f4-bf7b-9d1fb40ce918}, !- Name
  {f566d99a-440c-4f96-94c4-98f269bc6555}, !- HVAC Component
  {cc43b51f-b2d9-4730-9016-e2459009fa03}; !- Port 1

OS:PortList,
  {8ee62cae-d944-442f-aedc-4ee4835416ba}, !- Handle
  {52363d96-209b-43e0-aac1-aa13cafb8b72}, !- Name
  {f566d99a-440c-4f96-94c4-98f269bc6555}; !- HVAC Component

OS:Sizing:Zone,
  {7a36002e-ca6b-4dbc-93d9-bea105b492bc}, !- Handle
  {f566d99a-440c-4f96-94c4-98f269bc6555}, !- Zone or ZoneList Name
  SupplyAirTemperature,                   !- Zone Cooling Design Supply Air Temperature Input Method
  14,                                     !- Zone Cooling Design Supply Air Temperature {C}
  11.11,                                  !- Zone Cooling Design Supply Air Temperature Difference {deltaC}
  SupplyAirTemperature,                   !- Zone Heating Design Supply Air Temperature Input Method
  40,                                     !- Zone Heating Design Supply Air Temperature {C}
  11.11,                                  !- Zone Heating Design Supply Air Temperature Difference {deltaC}
  0.0085,                                 !- Zone Cooling Design Supply Air Humidity Ratio {kg-H2O/kg-air}
  0.008,                                  !- Zone Heating Design Supply Air Humidity Ratio {kg-H2O/kg-air}
  ,                                       !- Zone Heating Sizing Factor
  ,                                       !- Zone Cooling Sizing Factor
  DesignDay,                              !- Cooling Design Air Flow Method
  ,                                       !- Cooling Design Air Flow Rate {m3/s}
  ,                                       !- Cooling Minimum Air Flow per Zone Floor Area {m3/s-m2}
  ,                                       !- Cooling Minimum Air Flow {m3/s}
  ,                                       !- Cooling Minimum Air Flow Fraction
  DesignDay,                              !- Heating Design Air Flow Method
  ,                                       !- Heating Design Air Flow Rate {m3/s}
  ,                                       !- Heating Maximum Air Flow per Zone Floor Area {m3/s-m2}
  ,                                       !- Heating Maximum Air Flow {m3/s}
  ,                                       !- Heating Maximum Air Flow Fraction
  ,                                       !- Design Zone Air Distribution Effectiveness in Cooling Mode
  ,                                       !- Design Zone Air Distribution Effectiveness in Heating Mode
  No,                                     !- Account for Dedicated Outdoor Air System
  NeutralSupplyAir,                       !- Dedicated Outdoor Air System Control Strategy
  autosize,                               !- Dedicated Outdoor Air Low Setpoint Temperature for Design {C}
  autosize;                               !- Dedicated Outdoor Air High Setpoint Temperature for Design {C}

OS:ZoneHVAC:EquipmentList,
  {ef6643d0-abe1-4ab8-ba5d-cb1a55139773}, !- Handle
  Zone HVAC Equipment List 1,             !- Name
  {f566d99a-440c-4f96-94c4-98f269bc6555}, !- Thermal Zone
  {117db502-8b07-4de5-aab8-335e4386e7ff}, !- Zone Equipment 1
  1,                                      !- Zone Equipment Cooling Sequence 1
  1;                                      !- Zone Equipment Heating or No-Load Sequence 1

OS:Space,
  {4573140e-4974-46ba-8149-448ef3c2be6a}, !- Handle
  living space,                           !- Name
  ,                                       !- Space Type Name
  ,                                       !- Default Construction Set Name
  ,                                       !- Default Schedule Set Name
  -0,                                     !- Direction of Relative North {deg}
  0,                                      !- X Origin {m}
  0,                                      !- Y Origin {m}
  0,                                      !- Z Origin {m}
  ,                                       !- Building Story Name
  {f566d99a-440c-4f96-94c4-98f269bc6555}, !- Thermal Zone Name
  ,                                       !- Part of Total Floor Area
  ,                                       !- Design Specification Outdoor Air Object Name
  {bded326e-aded-4b77-b944-13fe7b9bf7f7}; !- Building Unit Name

OS:Surface,
  {cd9a1ec3-3029-4aae-8f0d-a074d69dad89}, !- Handle
  Surface 1,                              !- Name
  Floor,                                  !- Surface Type
  ,                                       !- Construction Name
  {4573140e-4974-46ba-8149-448ef3c2be6a}, !- Space Name
  Ground,                                 !- Outside Boundary Condition
  ,                                       !- Outside Boundary Condition Object
  NoSun,                                  !- Sun Exposure
  NoWind,                                 !- Wind Exposure
  ,                                       !- View Factor to Ground
  ,                                       !- Number of Vertices
  0, 0, 0,                                !- X,Y,Z Vertex 1 {m}
  0, 6.81553519541936, 0,                 !- X,Y,Z Vertex 2 {m}
  13.6310703908387, 6.81553519541936, 0,  !- X,Y,Z Vertex 3 {m}
  13.6310703908387, 0, 0;                 !- X,Y,Z Vertex 4 {m}

OS:Surface,
  {b3038d66-a4f3-4973-adae-93f17a4b9363}, !- Handle
  Surface 2,                              !- Name
  Wall,                                   !- Surface Type
  ,                                       !- Construction Name
  {4573140e-4974-46ba-8149-448ef3c2be6a}, !- Space Name
  Outdoors,                               !- Outside Boundary Condition
  ,                                       !- Outside Boundary Condition Object
  SunExposed,                             !- Sun Exposure
  WindExposed,                            !- Wind Exposure
  ,                                       !- View Factor to Ground
  ,                                       !- Number of Vertices
  0, 6.81553519541936, 2.4384,            !- X,Y,Z Vertex 1 {m}
  0, 6.81553519541936, 0,                 !- X,Y,Z Vertex 2 {m}
  0, 0, 0,                                !- X,Y,Z Vertex 3 {m}
  0, 0, 2.4384;                           !- X,Y,Z Vertex 4 {m}

OS:Surface,
  {febfc9e8-e032-42ad-bbe9-4cd969dbf3f0}, !- Handle
  Surface 3,                              !- Name
  Wall,                                   !- Surface Type
  ,                                       !- Construction Name
  {4573140e-4974-46ba-8149-448ef3c2be6a}, !- Space Name
  Outdoors,                               !- Outside Boundary Condition
  ,                                       !- Outside Boundary Condition Object
  SunExposed,                             !- Sun Exposure
  WindExposed,                            !- Wind Exposure
  ,                                       !- View Factor to Ground
  ,                                       !- Number of Vertices
  13.6310703908387, 6.81553519541936, 2.4384, !- X,Y,Z Vertex 1 {m}
  13.6310703908387, 6.81553519541936, 0,  !- X,Y,Z Vertex 2 {m}
  0, 6.81553519541936, 0,                 !- X,Y,Z Vertex 3 {m}
  0, 6.81553519541936, 2.4384;            !- X,Y,Z Vertex 4 {m}

OS:Surface,
  {e6e27200-3c7d-4728-b703-186fed1c903b}, !- Handle
  Surface 4,                              !- Name
  Wall,                                   !- Surface Type
  ,                                       !- Construction Name
  {4573140e-4974-46ba-8149-448ef3c2be6a}, !- Space Name
  Outdoors,                               !- Outside Boundary Condition
  ,                                       !- Outside Boundary Condition Object
  SunExposed,                             !- Sun Exposure
  WindExposed,                            !- Wind Exposure
  ,                                       !- View Factor to Ground
  ,                                       !- Number of Vertices
  13.6310703908387, 0, 2.4384,            !- X,Y,Z Vertex 1 {m}
  13.6310703908387, 0, 0,                 !- X,Y,Z Vertex 2 {m}
  13.6310703908387, 6.81553519541936, 0,  !- X,Y,Z Vertex 3 {m}
  13.6310703908387, 6.81553519541936, 2.4384; !- X,Y,Z Vertex 4 {m}

OS:Surface,
  {4f30c1d0-204a-454b-aeab-afa1e402ad0d}, !- Handle
  Surface 5,                              !- Name
  Wall,                                   !- Surface Type
  ,                                       !- Construction Name
  {4573140e-4974-46ba-8149-448ef3c2be6a}, !- Space Name
  Outdoors,                               !- Outside Boundary Condition
  ,                                       !- Outside Boundary Condition Object
  SunExposed,                             !- Sun Exposure
  WindExposed,                            !- Wind Exposure
  ,                                       !- View Factor to Ground
  ,                                       !- Number of Vertices
  0, 0, 2.4384,                           !- X,Y,Z Vertex 1 {m}
  0, 0, 0,                                !- X,Y,Z Vertex 2 {m}
  13.6310703908387, 0, 0,                 !- X,Y,Z Vertex 3 {m}
  13.6310703908387, 0, 2.4384;            !- X,Y,Z Vertex 4 {m}

OS:Surface,
  {9c0061c7-0679-49bc-a10b-800874ac5cdc}, !- Handle
  Surface 6,                              !- Name
  RoofCeiling,                            !- Surface Type
  ,                                       !- Construction Name
  {4573140e-4974-46ba-8149-448ef3c2be6a}, !- Space Name
  Surface,                                !- Outside Boundary Condition
  {5099278b-1816-4623-9864-695dbfced91b}, !- Outside Boundary Condition Object
  NoSun,                                  !- Sun Exposure
  NoWind,                                 !- Wind Exposure
  ,                                       !- View Factor to Ground
  ,                                       !- Number of Vertices
  13.6310703908387, 0, 2.4384,            !- X,Y,Z Vertex 1 {m}
  13.6310703908387, 6.81553519541936, 2.4384, !- X,Y,Z Vertex 2 {m}
  0, 6.81553519541936, 2.4384,            !- X,Y,Z Vertex 3 {m}
  0, 0, 2.4384;                           !- X,Y,Z Vertex 4 {m}

OS:Space,
  {44c59d10-d10c-4335-aed6-1c5ee83b2116}, !- Handle
  living space|story 2,                   !- Name
  ,                                       !- Space Type Name
  ,                                       !- Default Construction Set Name
  ,                                       !- Default Schedule Set Name
  -0,                                     !- Direction of Relative North {deg}
  0,                                      !- X Origin {m}
  0,                                      !- Y Origin {m}
  2.4384,                                 !- Z Origin {m}
  ,                                       !- Building Story Name
  {f566d99a-440c-4f96-94c4-98f269bc6555}, !- Thermal Zone Name
  ,                                       !- Part of Total Floor Area
  ,                                       !- Design Specification Outdoor Air Object Name
  {bded326e-aded-4b77-b944-13fe7b9bf7f7}; !- Building Unit Name

OS:Surface,
  {5099278b-1816-4623-9864-695dbfced91b}, !- Handle
  Surface 7,                              !- Name
  Floor,                                  !- Surface Type
  ,                                       !- Construction Name
  {44c59d10-d10c-4335-aed6-1c5ee83b2116}, !- Space Name
  Surface,                                !- Outside Boundary Condition
  {9c0061c7-0679-49bc-a10b-800874ac5cdc}, !- Outside Boundary Condition Object
  NoSun,                                  !- Sun Exposure
  NoWind,                                 !- Wind Exposure
  ,                                       !- View Factor to Ground
  ,                                       !- Number of Vertices
  0, 0, 0,                                !- X,Y,Z Vertex 1 {m}
  0, 6.81553519541936, 0,                 !- X,Y,Z Vertex 2 {m}
  13.6310703908387, 6.81553519541936, 0,  !- X,Y,Z Vertex 3 {m}
  13.6310703908387, 0, 0;                 !- X,Y,Z Vertex 4 {m}

OS:Surface,
  {22f8a837-a808-4534-9a77-a3ca4c2d1d8a}, !- Handle
  Surface 8,                              !- Name
  Wall,                                   !- Surface Type
  ,                                       !- Construction Name
  {44c59d10-d10c-4335-aed6-1c5ee83b2116}, !- Space Name
  Outdoors,                               !- Outside Boundary Condition
  ,                                       !- Outside Boundary Condition Object
  SunExposed,                             !- Sun Exposure
  WindExposed,                            !- Wind Exposure
  ,                                       !- View Factor to Ground
  ,                                       !- Number of Vertices
  0, 6.81553519541936, 2.4384,            !- X,Y,Z Vertex 1 {m}
  0, 6.81553519541936, 0,                 !- X,Y,Z Vertex 2 {m}
  0, 0, 0,                                !- X,Y,Z Vertex 3 {m}
  0, 0, 2.4384;                           !- X,Y,Z Vertex 4 {m}

OS:Surface,
  {34851264-779e-4e64-8136-b9a3abce04ad}, !- Handle
  Surface 9,                              !- Name
  Wall,                                   !- Surface Type
  ,                                       !- Construction Name
  {44c59d10-d10c-4335-aed6-1c5ee83b2116}, !- Space Name
  Outdoors,                               !- Outside Boundary Condition
  ,                                       !- Outside Boundary Condition Object
  SunExposed,                             !- Sun Exposure
  WindExposed,                            !- Wind Exposure
  ,                                       !- View Factor to Ground
  ,                                       !- Number of Vertices
  13.6310703908387, 6.81553519541936, 2.4384, !- X,Y,Z Vertex 1 {m}
  13.6310703908387, 6.81553519541936, 0,  !- X,Y,Z Vertex 2 {m}
  0, 6.81553519541936, 0,                 !- X,Y,Z Vertex 3 {m}
  0, 6.81553519541936, 2.4384;            !- X,Y,Z Vertex 4 {m}

OS:Surface,
  {ae089484-53b5-4c79-9d15-ab90406cf6b5}, !- Handle
  Surface 10,                             !- Name
  Wall,                                   !- Surface Type
  ,                                       !- Construction Name
  {44c59d10-d10c-4335-aed6-1c5ee83b2116}, !- Space Name
  Outdoors,                               !- Outside Boundary Condition
  ,                                       !- Outside Boundary Condition Object
  SunExposed,                             !- Sun Exposure
  WindExposed,                            !- Wind Exposure
  ,                                       !- View Factor to Ground
  ,                                       !- Number of Vertices
  13.6310703908387, 0, 2.4384,            !- X,Y,Z Vertex 1 {m}
  13.6310703908387, 0, 0,                 !- X,Y,Z Vertex 2 {m}
  13.6310703908387, 6.81553519541936, 0,  !- X,Y,Z Vertex 3 {m}
  13.6310703908387, 6.81553519541936, 2.4384; !- X,Y,Z Vertex 4 {m}

OS:Surface,
  {7baa3a2e-4a85-44cd-a238-3f1fc66abb1c}, !- Handle
  Surface 11,                             !- Name
  Wall,                                   !- Surface Type
  ,                                       !- Construction Name
  {44c59d10-d10c-4335-aed6-1c5ee83b2116}, !- Space Name
  Outdoors,                               !- Outside Boundary Condition
  ,                                       !- Outside Boundary Condition Object
  SunExposed,                             !- Sun Exposure
  WindExposed,                            !- Wind Exposure
  ,                                       !- View Factor to Ground
  ,                                       !- Number of Vertices
  0, 0, 2.4384,                           !- X,Y,Z Vertex 1 {m}
  0, 0, 0,                                !- X,Y,Z Vertex 2 {m}
  13.6310703908387, 0, 0,                 !- X,Y,Z Vertex 3 {m}
  13.6310703908387, 0, 2.4384;            !- X,Y,Z Vertex 4 {m}

OS:Surface,
  {0c47dec0-3580-48b4-90e0-5ac11dc6b388}, !- Handle
  Surface 12,                             !- Name
  RoofCeiling,                            !- Surface Type
  ,                                       !- Construction Name
  {44c59d10-d10c-4335-aed6-1c5ee83b2116}, !- Space Name
  Surface,                                !- Outside Boundary Condition
  {dbe75884-eff1-4f72-a4af-5bc8e9698194}, !- Outside Boundary Condition Object
  NoSun,                                  !- Sun Exposure
  NoWind,                                 !- Wind Exposure
  ,                                       !- View Factor to Ground
  ,                                       !- Number of Vertices
  13.6310703908387, 0, 2.4384,            !- X,Y,Z Vertex 1 {m}
  13.6310703908387, 6.81553519541936, 2.4384, !- X,Y,Z Vertex 2 {m}
  0, 6.81553519541936, 2.4384,            !- X,Y,Z Vertex 3 {m}
  0, 0, 2.4384;                           !- X,Y,Z Vertex 4 {m}

OS:Surface,
  {dbe75884-eff1-4f72-a4af-5bc8e9698194}, !- Handle
  Surface 13,                             !- Name
  Floor,                                  !- Surface Type
  ,                                       !- Construction Name
  {74a0fe6b-0130-4470-a40d-5f083cf11379}, !- Space Name
  Surface,                                !- Outside Boundary Condition
  {0c47dec0-3580-48b4-90e0-5ac11dc6b388}, !- Outside Boundary Condition Object
  NoSun,                                  !- Sun Exposure
  NoWind,                                 !- Wind Exposure
  ,                                       !- View Factor to Ground
  ,                                       !- Number of Vertices
  0, 6.81553519541936, 0,                 !- X,Y,Z Vertex 1 {m}
  13.6310703908387, 6.81553519541936, 0,  !- X,Y,Z Vertex 2 {m}
  13.6310703908387, 0, 0,                 !- X,Y,Z Vertex 3 {m}
  0, 0, 0;                                !- X,Y,Z Vertex 4 {m}

OS:Surface,
  {632d5e97-020a-42f5-9185-07a07c9ab128}, !- Handle
  Surface 14,                             !- Name
  RoofCeiling,                            !- Surface Type
  ,                                       !- Construction Name
  {74a0fe6b-0130-4470-a40d-5f083cf11379}, !- Space Name
  Outdoors,                               !- Outside Boundary Condition
  ,                                       !- Outside Boundary Condition Object
  SunExposed,                             !- Sun Exposure
  WindExposed,                            !- Wind Exposure
  ,                                       !- View Factor to Ground
  ,                                       !- Number of Vertices
  13.6310703908387, 3.40776759770968, 1.70388379885484, !- X,Y,Z Vertex 1 {m}
  0, 3.40776759770968, 1.70388379885484,  !- X,Y,Z Vertex 2 {m}
  0, 0, 0,                                !- X,Y,Z Vertex 3 {m}
  13.6310703908387, 0, 0;                 !- X,Y,Z Vertex 4 {m}

OS:Surface,
  {621b9dc0-396f-47df-9886-1991e8e9b3a7}, !- Handle
  Surface 15,                             !- Name
  RoofCeiling,                            !- Surface Type
  ,                                       !- Construction Name
  {74a0fe6b-0130-4470-a40d-5f083cf11379}, !- Space Name
  Outdoors,                               !- Outside Boundary Condition
  ,                                       !- Outside Boundary Condition Object
  SunExposed,                             !- Sun Exposure
  WindExposed,                            !- Wind Exposure
  ,                                       !- View Factor to Ground
  ,                                       !- Number of Vertices
  0, 3.40776759770968, 1.70388379885484,  !- X,Y,Z Vertex 1 {m}
  13.6310703908387, 3.40776759770968, 1.70388379885484, !- X,Y,Z Vertex 2 {m}
  13.6310703908387, 6.81553519541936, 0,  !- X,Y,Z Vertex 3 {m}
  0, 6.81553519541936, 0;                 !- X,Y,Z Vertex 4 {m}

OS:Surface,
  {d997bd15-d130-4b67-960e-c619918df680}, !- Handle
  Surface 16,                             !- Name
  Wall,                                   !- Surface Type
  ,                                       !- Construction Name
  {74a0fe6b-0130-4470-a40d-5f083cf11379}, !- Space Name
  Outdoors,                               !- Outside Boundary Condition
  ,                                       !- Outside Boundary Condition Object
  SunExposed,                             !- Sun Exposure
  WindExposed,                            !- Wind Exposure
  ,                                       !- View Factor to Ground
  ,                                       !- Number of Vertices
  0, 3.40776759770968, 1.70388379885484,  !- X,Y,Z Vertex 1 {m}
  0, 6.81553519541936, 0,                 !- X,Y,Z Vertex 2 {m}
  0, 0, 0;                                !- X,Y,Z Vertex 3 {m}

OS:Surface,
  {99566f93-b416-462e-83a0-2eb7e4c60ef2}, !- Handle
  Surface 17,                             !- Name
  Wall,                                   !- Surface Type
  ,                                       !- Construction Name
  {74a0fe6b-0130-4470-a40d-5f083cf11379}, !- Space Name
  Outdoors,                               !- Outside Boundary Condition
  ,                                       !- Outside Boundary Condition Object
  SunExposed,                             !- Sun Exposure
  WindExposed,                            !- Wind Exposure
  ,                                       !- View Factor to Ground
  ,                                       !- Number of Vertices
  13.6310703908387, 3.40776759770968, 1.70388379885484, !- X,Y,Z Vertex 1 {m}
  13.6310703908387, 0, 0,                 !- X,Y,Z Vertex 2 {m}
  13.6310703908387, 6.81553519541936, 0;  !- X,Y,Z Vertex 3 {m}

OS:Space,
  {74a0fe6b-0130-4470-a40d-5f083cf11379}, !- Handle
  unfinished attic space,                 !- Name
  ,                                       !- Space Type Name
  ,                                       !- Default Construction Set Name
  ,                                       !- Default Schedule Set Name
  -0,                                     !- Direction of Relative North {deg}
  0,                                      !- X Origin {m}
  0,                                      !- Y Origin {m}
  4.8768,                                 !- Z Origin {m}
  ,                                       !- Building Story Name
  {29bcdba9-0d8a-4b79-ab2e-8087eb7c8354}, !- Thermal Zone Name
  ,                                       !- Part of Total Floor Area
  ,                                       !- Design Specification Outdoor Air Object Name
  {bded326e-aded-4b77-b944-13fe7b9bf7f7}; !- Building Unit Name

OS:ThermalZone,
  {29bcdba9-0d8a-4b79-ab2e-8087eb7c8354}, !- Handle
  unfinished attic zone,                  !- Name
  ,                                       !- Multiplier
  ,                                       !- Ceiling Height {m}
  ,                                       !- Volume {m3}
  ,                                       !- Floor Area {m2}
  ,                                       !- Zone Inside Convection Algorithm
  ,                                       !- Zone Outside Convection Algorithm
  ,                                       !- Zone Conditioning Equipment List Name
  {dca3a09c-fd59-47c5-8d2f-3811ea1007cf}, !- Zone Air Inlet Port List
  {2d345bb1-2bc4-4f07-aa68-bc4cdfa33ca6}, !- Zone Air Exhaust Port List
  {2beb71cd-f494-4677-a8a0-2252e9d96ca2}, !- Zone Air Node Name
  ,                                       !- Zone Return Air Node Name
  ,                                       !- Primary Daylighting Control Name
  ,                                       !- Fraction of Zone Controlled by Primary Daylighting Control
  ,                                       !- Secondary Daylighting Control Name
  ,                                       !- Fraction of Zone Controlled by Secondary Daylighting Control
  ,                                       !- Illuminance Map Name
  ,                                       !- Group Rendering Name
  ,                                       !- Thermostat Name
  No;                                     !- Use Ideal Air Loads

OS:Node,
  {9c284ccc-b179-4be3-8e05-a890af6740c6}, !- Handle
  Node 2,                                 !- Name
  {2beb71cd-f494-4677-a8a0-2252e9d96ca2}, !- Inlet Port
  ;                                       !- Outlet Port

OS:Connection,
  {2beb71cd-f494-4677-a8a0-2252e9d96ca2}, !- Handle
  {6f7a360a-0f23-4f92-a565-ccb5fa2b45e6}, !- Name