!- NOTE: Auto-generated from /test/osw_files/SFD_Multizone_2story_SL_UA_GRG_2Bed_2Bath_Denver.osw

OS:Version,
  {fd8ca19a-1134-487d-8fa0-f73ef2e70fcc}, !- Handle
  2.2.1;                                  !- Version Identifier

OS:Building,
  {bf305633-c5a1-4881-9edf-ca5e1a8e1274}, !- Handle
  Building,                               !- Name
  ,                                       !- Building Sector Type
  ,                                       !- North Axis {deg}
  ,                                       !- Nominal Floor to Floor Height {m}
  ,                                       !- Space Type Name
  ,                                       !- Default Construction Set Name
  ,                                       !- Default Schedule Set Name
  ,                                       !- Standards Number of Stories
  2,                                      !- Standards Number of Above Ground Stories
  singlefamilydetached;                   !- Standards Building Type

OS:YearDescription,
  {513d8dda-86cb-442a-b01c-1f7f0e0ac70e}; !- Handle

OS:SimulationControl,
  {2c487a4c-bac9-4ac5-b669-1e49d9da7c2b}, !- Handle
  ,                                       !- Do Zone Sizing Calculation
  ,                                       !- Do System Sizing Calculation
  ,                                       !- Do Plant Sizing Calculation
  No,                                     !- Run Simulation for Sizing Periods
  ;                                       !- Run Simulation for Weather File Run Periods

OS:Timestep,
  {4ebc9f1e-4707-402e-9844-67eb1ffbd522}, !- Handle
  6;                                      !- Number of Timesteps per Hour

OS:RunPeriod,
  {28df894d-6af9-4fb8-8f56-df1753344aa3}, !- Handle
  Run Period,                             !- Name
  1,                                      !- Begin Month
  1,                                      !- Begin Day of Month
  12,                                     !- End Month
  31,                                     !- End Day of Month
  ,                                       !- Use Weather File Holidays and Special Days
  ,                                       !- Use Weather File Daylight Saving Period
  ,                                       !- Apply Weekend Holiday Rule
  ,                                       !- Use Weather File Rain Indicators
  ,                                       !- Use Weather File Snow Indicators
  ;                                       !- Number of Times Runperiod to be Repeated

OS:Sizing:Parameters,
  {dde5af6f-7923-4600-a28a-7556673a0266}, !- Handle
  1.0,                                    !- Heating Sizing Factor
  1.0;                                    !- Cooling Sizing Factor

OS:ShadowCalculation,
  {ca758bea-4416-4626-9bba-3d8795c79bd6}, !- Handle
  20,                                     !- Calculation Frequency
  200;                                    !- Maximum Figures in Shadow Overlap Calculations

OS:SurfaceConvectionAlgorithm:Inside,
  {aaabfc36-718a-4ab0-b622-f186ebb45230}, !- Handle
  TARP;                                   !- Algorithm

OS:SurfaceConvectionAlgorithm:Outside,
  {9a0a9f6f-4bbd-4b12-a121-9492a1fcd7d6}, !- Handle
  DOE-2;                                  !- Algorithm

OS:HeatBalanceAlgorithm,
  {9d93e563-e1e0-46d7-9e39-d1c8aceb7212}, !- Handle
  ConductionTransferFunction,             !- Algorithm
  200;                                    !- Surface Temperature Upper Limit {C}

OS:ZoneCapacitanceMultiplier:ResearchSpecial,
  {6bfced16-b16f-47f6-8223-f7e267d75d19}, !- Handle
  ,                                       !- Temperature Capacity Multiplier
  15,                                     !- Humidity Capacity Multiplier
  ;                                       !- Carbon Dioxide Capacity Multiplier

OS:Space,
  {405e5101-32a0-4c4e-80d3-488a2c289de2}, !- Handle
  Space 3 - 1,                            !- Name
  {7bd2649f-0429-44f4-9c62-e6688464fc33}, !- Space Type Name
  ,                                       !- Default Construction Set Name
  ,                                       !- Default Schedule Set Name
  ,                                       !- Direction of Relative North {deg}
  ,                                       !- X Origin {m}
  ,                                       !- Y Origin {m}
  ,                                       !- Z Origin {m}
  {9e48e4c0-d6ab-4d5a-bebd-784bd5ee76f5}, !- Building Story Name
  {ea53ed7f-73d0-4b36-94ef-91efacf30f73}, !- Thermal Zone Name
  ,                                       !- Part of Total Floor Area
  ,                                       !- Design Specification Outdoor Air Object Name
  {6ff5ffc4-e000-4933-b570-0e70a40bbd3d}; !- Building Unit Name

OS:Surface,
  {a29b278a-9bbd-42bd-9894-32c02e0adc06}, !- Handle
   68,                                    !- Name
  Floor,                                  !- Surface Type
  ,                                       !- Construction Name
  {405e5101-32a0-4c4e-80d3-488a2c289de2}, !- Space Name
  Surface,                                !- Outside Boundary Condition
  {36d69dfb-84e5-427f-8376-b075fa3cfcc5}, !- Outside Boundary Condition Object
  NoSun,                                  !- Sun Exposure
  NoWind,                                 !- Wind Exposure
  ,                                       !- View Factor to Ground
  ,                                       !- Number of Vertices
  7.3152, 17.6784, 6,                     !- X,Y,Z Vertex 1 {m}
  7.3152, 10.9728, 6,                     !- X,Y,Z Vertex 2 {m}
  -15.24, 10.9728, 6,                     !- X,Y,Z Vertex 3 {m}
  -15.24, 17.6784, 6;                     !- X,Y,Z Vertex 4 {m}

OS:Surface,
  {56e7c1a8-a095-4e42-bcd4-575bf528ed6d}, !- Handle
   69,                                    !- Name
  RoofCeiling,                            !- Surface Type
  ,                                       !- Construction Name
  {405e5101-32a0-4c4e-80d3-488a2c289de2}, !- Space Name
  Outdoors,                               !- Outside Boundary Condition
  ,                                       !- Outside Boundary Condition Object
  SunExposed,                             !- Sun Exposure
  WindExposed,                            !- Wind Exposure
  ,                                       !- View Factor to Ground
  ,                                       !- Number of Vertices
  7.3152, 17.6784, 9,                     !- X,Y,Z Vertex 1 {m}
  -20.7264, 17.6784, 9,                   !- X,Y,Z Vertex 2 {m}
  -20.7264, 10.9728, 9,                   !- X,Y,Z Vertex 3 {m}
  7.3152, 10.9728, 9;                     !- X,Y,Z Vertex 4 {m}

OS:Surface,
  {a3797f16-8f9c-4c9b-8230-f17fac4eced8}, !- Handle
   70,                                    !- Name
  Wall,                                   !- Surface Type
  ,                                       !- Construction Name
  {405e5101-32a0-4c4e-80d3-488a2c289de2}, !- Space Name
  Outdoors,                               !- Outside Boundary Condition
  ,                                       !- Outside Boundary Condition Object
  SunExposed,                             !- Sun Exposure
  WindExposed,                            !- Wind Exposure
  ,                                       !- View Factor to Ground
  ,                                       !- Number of Vertices
  -20.7264, 10.9728, 9,                   !- X,Y,Z Vertex 1 {m}
  -20.7264, 10.9728, 6,                   !- X,Y,Z Vertex 2 {m}
  7.3152, 10.9728, 6,                     !- X,Y,Z Vertex 3 {m}
  7.3152, 10.9728, 9;                     !- X,Y,Z Vertex 4 {m}

OS:Surface,
  {294ca6ef-f567-42f5-b453-91dc52aeabbe}, !- Handle
   71,                                    !- Name
  Wall,                                   !- Surface Type
  ,                                       !- Construction Name
  {405e5101-32a0-4c4e-80d3-488a2c289de2}, !- Space Name
  Outdoors,                               !- Outside Boundary Condition
  ,                                       !- Outside Boundary Condition Object
  SunExposed,                             !- Sun Exposure
  WindExposed,                            !- Wind Exposure
  ,                                       !- View Factor to Ground
  ,                                       !- Number of Vertices
  -20.7264, 17.6784, 9,                   !- X,Y,Z Vertex 1 {m}
  -20.7264, 17.6784, 6,                   !- X,Y,Z Vertex 2 {m}
  -20.7264, 10.9728, 6,                   !- X,Y,Z Vertex 3 {m}
  -20.7264, 10.9728, 9;                   !- X,Y,Z Vertex 4 {m}

OS:Surface,
  {0ade0e53-a1a6-4fec-b4fc-4e3bcfaf5b06}, !- Handle
   72,                                    !- Name
  Wall,                                   !- Surface Type
  ,                                       !- Construction Name
  {405e5101-32a0-4c4e-80d3-488a2c289de2}, !- Space Name
  Outdoors,                               !- Outside Boundary Condition
  ,                                       !- Outside Boundary Condition Object
  SunExposed,                             !- Sun Exposure
  WindExposed,                            !- Wind Exposure
  ,                                       !- View Factor to Ground
  ,                                       !- Number of Vertices
  7.3152, 17.6784, 9,                     !- X,Y,Z Vertex 1 {m}
  7.3152, 17.6784, 6,                     !- X,Y,Z Vertex 2 {m}
  -20.7264, 17.6784, 6,                   !- X,Y,Z Vertex 3 {m}
  -20.7264, 17.6784, 9;                   !- X,Y,Z Vertex 4 {m}

OS:Surface,
  {e43f08c9-a934-4233-a170-62c67c34c744}, !- Handle
   73,                                    !- Name
  Wall,                                   !- Surface Type
  ,                                       !- Construction Name
  {405e5101-32a0-4c4e-80d3-488a2c289de2}, !- Space Name
  Outdoors,                               !- Outside Boundary Condition
  ,                                       !- Outside Boundary Condition Object
  SunExposed,                             !- Sun Exposure
  WindExposed,                            !- Wind Exposure
  ,                                       !- View Factor to Ground
  ,                                       !- Number of Vertices
  7.3152, 10.9728, 9,                     !- X,Y,Z Vertex 1 {m}
  7.3152, 10.9728, 6,                     !- X,Y,Z Vertex 2 {m}
  7.3152, 17.6784, 6,                     !- X,Y,Z Vertex 3 {m}
  7.3152, 17.6784, 9;                     !- X,Y,Z Vertex 4 {m}

OS:Surface,
  {288bacf0-69a2-4c2b-9951-315e578e8c66}, !- Handle
  Surface 4,                              !- Name
  Floor,                                  !- Surface Type
  ,                                       !- Construction Name
  {405e5101-32a0-4c4e-80d3-488a2c289de2}, !- Space Name
  Surface,                                !- Outside Boundary Condition
  {fbfc8ff2-c5ee-430d-8dae-b80e4ce7c527}, !- Outside Boundary Condition Object
  NoSun,                                  !- Sun Exposure
  NoWind,                                 !- Wind Exposure
  ,                                       !- View Factor to Ground
  ,                                       !- Number of Vertices
  -15.24, 17.6784, 6,                     !- X,Y,Z Vertex 1 {m}
  -15.24, 10.9728, 6,                     !- X,Y,Z Vertex 2 {m}
  -16.4592, 10.9728, 6,                   !- X,Y,Z Vertex 3 {m}
  -16.4592, 17.6784, 6;                   !- X,Y,Z Vertex 4 {m}

OS:Surface,
  {b041f5e1-6f5b-4e33-82c7-f2ff473faff5}, !- Handle
  Surface 5,                              !- Name
  Floor,                                  !- Surface Type
  ,                                       !- Construction Name
  {405e5101-32a0-4c4e-80d3-488a2c289de2}, !- Space Name
  Surface,                                !- Outside Boundary Condition
  {f76de933-0360-45c2-b35a-e72b77c03a5f}, !- Outside Boundary Condition Object
  NoSun,                                  !- Sun Exposure
  NoWind,                                 !- Wind Exposure
  ,                                       !- View Factor to Ground
  ,                                       !- Number of Vertices
  -16.4592, 17.6784, 6,                   !- X,Y,Z Vertex 1 {m}
  -16.4592, 12.8016, 6,                   !- X,Y,Z Vertex 2 {m}
  -20.7264, 12.8016, 6,                   !- X,Y,Z Vertex 3 {m}
  -20.7264, 17.6784, 6;                   !- X,Y,Z Vertex 4 {m}

OS:Surface,
  {516c2a13-4e93-4479-be82-f4e01555d43c}, !- Handle
  Surface 6,                              !- Name
  Floor,                                  !- Surface Type
  ,                                       !- Construction Name
  {405e5101-32a0-4c4e-80d3-488a2c289de2}, !- Space Name
  Surface,                                !- Outside Boundary Condition
  {4fd38812-0cad-4995-b2a7-848ae976304b}, !- Outside Boundary Condition Object
  NoSun,                                  !- Sun Exposure
  NoWind,                                 !- Wind Exposure
  ,                                       !- View Factor to Ground
  ,                                       !- Number of Vertices
  -16.4592, 12.8016, 6,                   !- X,Y,Z Vertex 1 {m}
  -16.4592, 10.9728, 6,                   !- X,Y,Z Vertex 2 {m}
  -20.7264, 10.9728, 6,                   !- X,Y,Z Vertex 3 {m}
  -20.7264, 12.8016, 6;                   !- X,Y,Z Vertex 4 {m}

OS:ThermalZone,
  {ea53ed7f-73d0-4b36-94ef-91efacf30f73}, !- Handle
  attic zone,                             !- Name
  ,                                       !- Multiplier
  ,                                       !- Ceiling Height {m}
  ,                                       !- Volume {m3}
  ,                                       !- Floor Area {m2}
  ,                                       !- Zone Inside Convection Algorithm
  ,                                       !- Zone Outside Convection Algorithm
  ,                                       !- Zone Conditioning Equipment List Name
  {2088c316-b2dd-443a-9e1e-2d54a2cf9196}, !- Zone Air Inlet Port List
  {7210068e-1e07-460a-91b7-4ddff41112e7}, !- Zone Air Exhaust Port List
  {e3a9dddd-fff7-4f14-8f88-ce9b5e4b6e3a}, !- Zone Air Node Name
  ,                                       !- Zone Return Air Node Name
  ,                                       !- Primary Daylighting Control Name
  ,                                       !- Fraction of Zone Controlled by Primary Daylighting Control
  ,                                       !- Secondary Daylighting Control Name
  ,                                       !- Fraction of Zone Controlled by Secondary Daylighting Control
  ,                                       !- Illuminance Map Name
  ,                                       !- Group Rendering Name
  ,                                       !- Thermostat Name
  No;                                     !- Use Ideal Air Loads

OS:Node,
  {16e58a29-2a74-4f9e-a06c-2aac885f85d4}, !- Handle
  Node 1,                                 !- Name
  {e3a9dddd-fff7-4f14-8f88-ce9b5e4b6e3a}, !- Inlet Port
  ;                                       !- Outlet Port

OS:Connection,
  {e3a9dddd-fff7-4f14-8f88-ce9b5e4b6e3a}, !- Handle
  {52e31a78-e23a-45dd-9a30-3b31075b1746}, !- Name
  {ea53ed7f-73d0-4b36-94ef-91efacf30f73}, !- Source Object
  11,                                     !- Outlet Port
  {16e58a29-2a74-4f9e-a06c-2aac885f85d4}, !- Target Object
  2;                                      !- Inlet Port

OS:PortList,
  {2088c316-b2dd-443a-9e1e-2d54a2cf9196}, !- Handle
  {b56e4f7f-ed5e-4e90-a365-9b4a8b942ae4}, !- Name
  {ea53ed7f-73d0-4b36-94ef-91efacf30f73}; !- HVAC Component

OS:PortList,
  {7210068e-1e07-460a-91b7-4ddff41112e7}, !- Handle
  {a6f99cc9-a7e5-4524-ac25-b13b862628ed}, !- Name
  {ea53ed7f-73d0-4b36-94ef-91efacf30f73}; !- HVAC Component

OS:Sizing:Zone,
  {8a1a27a0-e423-41ca-82c3-d48194940680}, !- Handle
  {ea53ed7f-73d0-4b36-94ef-91efacf30f73}, !- Zone or ZoneList Name
  SupplyAirTemperature,                   !- Zone Cooling Design Supply Air Temperature Input Method
  14,                                     !- Zone Cooling Design Supply Air Temperature {C}
  11.11,                                  !- Zone Cooling Design Supply Air Temperature Difference {deltaC}
  SupplyAirTemperature,                   !- Zone Heating Design Supply Air Temperature Input Method
  40,                                     !- Zone Heating Design Supply Air Temperature {C}
  11.11,                                  !- Zone Heating Design Supply Air Temperature Difference {deltaC}
  0.0085,                                 !- Zone Cooling Design Supply Air Humidity Ratio {kg-H2O/kg-air}
  0.008,                                  !- Zone Heating Design Supply Air Humidity Ratio {kg-H2O/kg-air}
  ,                                       !- Zone Heating Sizing Factor
  ,                                       !- Zone Cooling Sizing Factor
  DesignDay,                              !- Cooling Design Air Flow Method
  ,                                       !- Cooling Design Air Flow Rate {m3/s}
  ,                                       !- Cooling Minimum Air Flow per Zone Floor Area {m3/s-m2}
  ,                                       !- Cooling Minimum Air Flow {m3/s}
  ,                                       !- Cooling Minimum Air Flow Fraction
  DesignDay,                              !- Heating Design Air Flow Method
  ,                                       !- Heating Design Air Flow Rate {m3/s}
  ,                                       !- Heating Maximum Air Flow per Zone Floor Area {m3/s-m2}
  ,                                       !- Heating Maximum Air Flow {m3/s}
  ,                                       !- Heating Maximum Air Flow Fraction
  ,                                       !- Design Zone Air Distribution Effectiveness in Cooling Mode
  ,                                       !- Design Zone Air Distribution Effectiveness in Heating Mode
  No,                                     !- Account for Dedicated Outdoor Air System
  NeutralSupplyAir,                       !- Dedicated Outdoor Air System Control Strategy
  autosize,                               !- Dedicated Outdoor Air Low Setpoint Temperature for Design {C}
  autosize;                               !- Dedicated Outdoor Air High Setpoint Temperature for Design {C}

OS:ZoneHVAC:EquipmentList,
  {13f6c5b9-16bb-4dec-852a-ef719481e2d9}, !- Handle
  Zone HVAC Equipment List 1,             !- Name
  {ea53ed7f-73d0-4b36-94ef-91efacf30f73}; !- Thermal Zone

OS:SpaceType,
  {7bd2649f-0429-44f4-9c62-e6688464fc33}, !- Handle
  attic,                                  !- Name
  ,                                       !- Default Construction Set Name
  ,                                       !- Default Schedule Set Name
  ,                                       !- Group Rendering Name
  ,                                       !- Design Specification Outdoor Air Object Name
  ,                                       !- Standards Building Type
  attic;                                  !- Standards Space Type

OS:BuildingStory,
  {9e48e4c0-d6ab-4d5a-bebd-784bd5ee76f5}, !- Handle
  Story 3,                                !- Name
  ,                                       !- Nominal Z Coordinate {m}
  ,                                       !- Nominal Floor to Floor Height {m}
  ,                                       !- Default Construction Set Name
  ,                                       !- Default Schedule Set Name
  ;                                       !- Group Rendering Name

OS:BuildingUnit,
  {6ff5ffc4-e000-4933-b570-0e70a40bbd3d}, !- Handle
  unit 1,                                 !- Name
  ,                                       !- Rendering Color
  ,                                       !- Building Unit Type
  SizingInfoGarageFracUnderFinishedSpace, !- Building Unit Feature Name 1
  Double,                                 !- Building Unit Feature Data Type 1
  0.5,                                    !- Building Unit Feature Value 1
  NumberOfBedrooms,                       !- Building Unit Feature Name 2
  Integer,                                !- Building Unit Feature Data Type 2
  2,                                      !- Building Unit Feature Value 2
  NumberOfBathrooms,                      !- Building Unit Feature Name 3
  Double,                                 !- Building Unit Feature Data Type 3
  2;                                      !- Building Unit Feature Value 3

OS:Space,
  {5b0268a3-a69e-4ffc-b24a-0c711652b6cc}, !- Handle
  Space 1 - 3,                            !- Name
  {71f9abda-bccd-4b0e-93d0-c133b5688d6d}, !- Space Type Name
  ,                                       !- Default Construction Set Name
  ,                                       !- Default Schedule Set Name
  ,                                       !- Direction of Relative North {deg}
  ,                                       !- X Origin {m}
  ,                                       !- Y Origin {m}
  ,                                       !- Z Origin {m}
  {155d5ef2-4b8c-46b9-b839-8e4cbd06af8b}, !- Building Story Name
  {3e295fe2-a2df-4517-87c0-8a4b8b9bb449}, !- Thermal Zone Name
  ,                                       !- Part of Total Floor Area
  ,                                       !- Design Specification Outdoor Air Object Name
  {6ff5ffc4-e000-4933-b570-0e70a40bbd3d}; !- Building Unit Name

OS:Surface,
  {e652842d-ab0d-4455-829f-5f62261721a0}, !- Handle
   12,                                    !- Name
  Floor,                                  !- Surface Type
  ,                                       !- Construction Name
  {5b0268a3-a69e-4ffc-b24a-0c711652b6cc}, !- Space Name
  Ground,                                 !- Outside Boundary Condition
  ,                                       !- Outside Boundary Condition Object
  NoSun,                                  !- Sun Exposure
  NoWind,                                 !- Wind Exposure
  ,                                       !- View Factor to Ground
  ,                                       !- Number of Vertices
  -15.24, 10.9728, 0,                     !- X,Y,Z Vertex 1 {m}
  -16.4592, 10.9728, 0,                   !- X,Y,Z Vertex 2 {m}
  -16.4592, 12.8016, 0,                   !- X,Y,Z Vertex 3 {m}
  -16.4592, 17.6784, 0,                   !- X,Y,Z Vertex 4 {m}
  -15.24, 17.6784, 0;                     !- X,Y,Z Vertex 5 {m}

OS:Surface,
  {2e0df6fa-cfd8-4023-afd2-8c00a68f847a}, !- Handle
   13,                                    !- Name
  RoofCeiling,                            !- Surface Type
  ,                                       !- Construction Name
  {5b0268a3-a69e-4ffc-b24a-0c711652b6cc}, !- Space Name
  Surface,                                !- Outside Boundary Condition
  {d8d95f4b-cae8-42bc-baa7-f073ba1f8f55}, !- Outside Boundary Condition Object
  NoSun,                                  !- Sun Exposure
  NoWind,                                 !- Wind Exposure
  ,                                       !- View Factor to Ground
  ,                                       !- Number of Vertices
  -15.24, 17.6784, 3,                     !- X,Y,Z Vertex 1 {m}
  -16.4592, 17.6784, 3,                   !- X,Y,Z Vertex 2 {m}
  -16.4592, 12.8016, 3,                   !- X,Y,Z Vertex 3 {m}
  -16.4592, 10.9728, 3,                   !- X,Y,Z Vertex 4 {m}
  -15.24, 10.9728, 3;                     !- X,Y,Z Vertex 5 {m}

OS:Surface,
  {0a1668e0-113e-49f9-bb36-66179fef9010}, !- Handle
   14,                                    !- Name
  Wall,                                   !- Surface Type
  ,                                       !- Construction Name
  {5b0268a3-a69e-4ffc-b24a-0c711652b6cc}, !- Space Name
  Outdoors,                               !- Outside Boundary Condition
  ,                                       !- Outside Boundary Condition Object
  SunExposed,                             !- Sun Exposure
  WindExposed,                            !- Wind Exposure
  ,                                       !- View Factor to Ground
  ,                                       !- Number of Vertices
  -16.4592, 10.9728, 3,                   !- X,Y,Z Vertex 1 {m}
  -16.4592, 10.9728, 0,                   !- X,Y,Z Vertex 2 {m}
  -15.24, 10.9728, 0,                     !- X,Y,Z Vertex 3 {m}
  -15.24, 10.9728, 3;                     !- X,Y,Z Vertex 4 {m}

OS:Surface,
  {ea002794-0e69-48e4-a455-4aba126255ce}, !- Handle
   15,                                    !- Name
  Wall,                                   !- Surface Type
  ,                                       !- Construction Name
  {5b0268a3-a69e-4ffc-b24a-0c711652b6cc}, !- Space Name
  Surface,                                !- Outside Boundary Condition
  {e66692b9-c912-4bb5-9d04-a12d6efaaf02}, !- Outside Boundary Condition Object
  NoSun,                                  !- Sun Exposure
  NoWind,                                 !- Wind Exposure
  ,                                       !- View Factor to Ground
  ,                                       !- Number of Vertices
  -16.4592, 12.8016, 3,                   !- X,Y,Z Vertex 1 {m}
  -16.4592, 12.8016, 0,                   !- X,Y,Z Vertex 2 {m}
  -16.4592, 10.9728, 0,                   !- X,Y,Z Vertex 3 {m}
  -16.4592, 10.9728, 3;                   !- X,Y,Z Vertex 4 {m}

OS:Surface,
  {0c542814-3bdb-45e4-8dc9-139f8cbfab5c}, !- Handle
   16,                                    !- Name
  Wall,                                   !- Surface Type
  ,                                       !- Construction Name
  {5b0268a3-a69e-4ffc-b24a-0c711652b6cc}, !- Space Name
  Surface,                                !- Outside Boundary Condition
  {21d90e1d-d94a-4f4f-bb72-6bd636c0a742}, !- Outside Boundary Condition Object
  NoSun,                                  !- Sun Exposure
  NoWind,                                 !- Wind Exposure
  ,                                       !- View Factor to Ground
  ,                                       !- Number of Vertices
  -16.4592, 17.6784, 3,                   !- X,Y,Z Vertex 1 {m}
  -16.4592, 17.6784, 0,                   !- X,Y,Z Vertex 2 {m}
  -16.4592, 12.8016, 0,                   !- X,Y,Z Vertex 3 {m}
  -16.4592, 12.8016, 3;                   !- X,Y,Z Vertex 4 {m}

OS:Surface,
  {3243567c-5678-429b-82eb-263fbfcdb336}, !- Handle
   17,                                    !- Name
  Wall,                                   !- Surface Type
  ,                                       !- Construction Name
  {5b0268a3-a69e-4ffc-b24a-0c711652b6cc}, !- Space Name
  Outdoors,                               !- Outside Boundary Condition
  ,                                       !- Outside Boundary Condition Object
  SunExposed,                             !- Sun Exposure
  WindExposed,                            !- Wind Exposure
  ,                                       !- View Factor to Ground
  ,                                       !- Number of Vertices
  -15.24, 17.6784, 3,                     !- X,Y,Z Vertex 1 {m}
  -15.24, 17.6784, 0,                     !- X,Y,Z Vertex 2 {m}
  -16.4592, 17.6784, 0,                   !- X,Y,Z Vertex 3 {m}
  -16.4592, 17.6784, 3;                   !- X,Y,Z Vertex 4 {m}

OS:Surface,
  {2f8ab2b2-2b0a-4865-b97a-e275e4edfd70}, !- Handle
   18,                                    !- Name
  Wall,                                   !- Surface Type
  ,                                       !- Construction Name
  {5b0268a3-a69e-4ffc-b24a-0c711652b6cc}, !- Space Name
  Surface,                                !- Outside Boundary Condition
  {6a81be3f-3ce2-44e8-bd85-d233e5c15b1e}, !- Outside Boundary Condition Object
  NoSun,                                  !- Sun Exposure
  NoWind,                                 !- Wind Exposure
  ,                                       !- View Factor to Ground
  ,                                       !- Number of Vertices
  -15.24, 10.9728, 3,                     !- X,Y,Z Vertex 1 {m}
  -15.24, 10.9728, 0,                     !- X,Y,Z Vertex 2 {m}
  -15.24, 17.6784, 0,                     !- X,Y,Z Vertex 3 {m}
  -15.24, 17.6784, 3;                     !- X,Y,Z Vertex 4 {m}

OS:ThermalZone,
  {3e295fe2-a2df-4517-87c0-8a4b8b9bb449}, !- Handle
  hallway 1 zone,                         !- Name
  ,                                       !- Multiplier
  ,                                       !- Ceiling Height {m}
  ,                                       !- Volume {m3}
  ,                                       !- Floor Area {m2}
  ,                                       !- Zone Inside Convection Algorithm
  ,                                       !- Zone Outside Convection Algorithm
  ,                                       !- Zone Conditioning Equipment List Name
  {d873a25a-4866-4e90-a5a6-53f0d5b1482c}, !- Zone Air Inlet Port List
  {9ae49236-1333-403a-b3f9-73becb450a8a}, !- Zone Air Exhaust Port List
  {4f0da562-f73e-40c7-87fa-3cb28bde0bf0}, !- Zone Air Node Name
  ,                                       !- Zone Return Air Node Name
  ,                                       !- Primary Daylighting Control Name
  ,                                       !- Fraction of Zone Controlled by Primary Daylighting Control
  ,                                       !- Secondary Daylighting Control Name
  ,                                       !- Fraction of Zone Controlled by Secondary Daylighting Control
  ,                                       !- Illuminance Map Name
  ,                                       !- Group Rendering Name
  ,                                       !- Thermostat Name
  No;                                     !- Use Ideal Air Loads

OS:Node,
  {167a65d1-e803-497d-9840-cda04c10e29a}, !- Handle
  Node 2,                                 !- Name
  {4f0da562-f73e-40c7-87fa-3cb28bde0bf0}, !- Inlet Port
  ;                                       !- Outlet Port

OS:Connection,
  {4f0da562-f73e-40c7-87fa-3cb28bde0bf0}, !- Handle
  {a23ea76e-59dd-4a99-b09f-74d436e6968a}, !- Name
  {3e295fe2-a2df-4517-87c0-8a4b8b9bb449}, !- Source Object
  11,                                     !- Outlet Port