!- NOTE: Auto-generated from /test/osw_files/SFD_2000sqft_2story_FB_GRG_UA_3Beds_2Baths_Denver_ElecWHTankless_SHW.osw

OS:Version,
  {fc003c06-618b-4051-9b37-6b6f71b12672}, !- Handle
  2.2.0;                                  !- Version Identifier

OS:Building,
  {bf305633-c5a1-4881-9edf-ca5e1a8e1274}, !- Handle
  Building,                               !- Name
  ,                                       !- Building Sector Type
  ,                                       !- North Axis {deg}
  ,                                       !- Nominal Floor to Floor Height {m}
  ,                                       !- Space Type Name
  ,                                       !- Default Construction Set Name
  ,                                       !- Default Schedule Set Name
  3,                                      !- Standards Number of Stories
  2,                                      !- Standards Number of Above Ground Stories
  singlefamilydetached,                   !- Standards Building Type
  1;                                      !- Standards Number of Living Units

OS:YearDescription,
  {513d8dda-86cb-442a-b01c-1f7f0e0ac70e}; !- Handle

OS:SimulationControl,
  {2c487a4c-bac9-4ac5-b669-1e49d9da7c2b}, !- Handle
  ,                                       !- Do Zone Sizing Calculation
  ,                                       !- Do System Sizing Calculation
  ,                                       !- Do Plant Sizing Calculation
  No,                                     !- Run Simulation for Sizing Periods
  ;                                       !- Run Simulation for Weather File Run Periods

OS:Timestep,
  {4ebc9f1e-4707-402e-9844-67eb1ffbd522}, !- Handle
  6;                                      !- Number of Timesteps per Hour

OS:RunPeriod,
  {28df894d-6af9-4fb8-8f56-df1753344aa3}, !- Handle
  Run Period,                             !- Name
  1,                                      !- Begin Month
  1,                                      !- Begin Day of Month
  12,                                     !- End Month
  31,                                     !- End Day of Month
  ,                                       !- Use Weather File Holidays and Special Days
  ,                                       !- Use Weather File Daylight Saving Period
  ,                                       !- Apply Weekend Holiday Rule
  ,                                       !- Use Weather File Rain Indicators
  ,                                       !- Use Weather File Snow Indicators
  ;                                       !- Number of Times Runperiod to be Repeated

OS:Sizing:Parameters,
  {dde5af6f-7923-4600-a28a-7556673a0266}, !- Handle
  1.0,                                    !- Heating Sizing Factor
  1.0;                                    !- Cooling Sizing Factor

OS:ShadowCalculation,
  {ca758bea-4416-4626-9bba-3d8795c79bd6}, !- Handle
  20,                                     !- Calculation Frequency
  200;                                    !- Maximum Figures in Shadow Overlap Calculations

OS:SurfaceConvectionAlgorithm:Inside,
  {aaabfc36-718a-4ab0-b622-f186ebb45230}, !- Handle
  TARP;                                   !- Algorithm

OS:SurfaceConvectionAlgorithm:Outside,
  {9a0a9f6f-4bbd-4b12-a121-9492a1fcd7d6}, !- Handle
  DOE-2;                                  !- Algorithm

OS:HeatBalanceAlgorithm,
  {9d93e563-e1e0-46d7-9e39-d1c8aceb7212}, !- Handle
  ConductionTransferFunction,             !- Algorithm
  200;                                    !- Surface Temperature Upper Limit {C}

OS:ZoneCapacitanceMultiplier:ResearchSpecial,
  {6bfced16-b16f-47f6-8223-f7e267d75d19}, !- Handle
  ,                                       !- Temperature Capacity Multiplier
  15,                                     !- Humidity Capacity Multiplier
  ;                                       !- Carbon Dioxide Capacity Multiplier

OS:ThermalZone,
  {7c65d8b7-8ba1-485c-ad30-25ba4b42f886}, !- Handle
  living zone,                            !- Name
  ,                                       !- Multiplier
  ,                                       !- Ceiling Height {m}
  ,                                       !- Volume {m3}
  ,                                       !- Floor Area {m2}
  ,                                       !- Zone Inside Convection Algorithm
  ,                                       !- Zone Outside Convection Algorithm
  ,                                       !- Zone Conditioning Equipment List Name
  {658aab6f-c396-44bd-9a6f-95c600ed3441}, !- Zone Air Inlet Port List
  {0f1cf6e0-4f52-4607-ba7e-0e24fa43accf}, !- Zone Air Exhaust Port List
  {d68a4910-6203-4433-a368-3b542bc06a3c}, !- Zone Air Node Name
  ,                                       !- Zone Return Air Node Name
  ,                                       !- Primary Daylighting Control Name
  ,                                       !- Fraction of Zone Controlled by Primary Daylighting Control
  ,                                       !- Secondary Daylighting Control Name
  ,                                       !- Fraction of Zone Controlled by Secondary Daylighting Control
  ,                                       !- Illuminance Map Name
  ,                                       !- Group Rendering Name
  ,                                       !- Thermostat Name
  No;                                     !- Use Ideal Air Loads

OS:Node,
  {c16d70bb-9690-4be8-aca5-1e44cdf22006}, !- Handle
  Node 1,                                 !- Name
  {d68a4910-6203-4433-a368-3b542bc06a3c}, !- Inlet Port
  ;                                       !- Outlet Port

OS:Connection,
  {d68a4910-6203-4433-a368-3b542bc06a3c}, !- Handle
  {82eadb77-1131-48ad-9d5d-6bc008a010bf}, !- Name
  {7c65d8b7-8ba1-485c-ad30-25ba4b42f886}, !- Source Object
  11,                                     !- Outlet Port
  {c16d70bb-9690-4be8-aca5-1e44cdf22006}, !- Target Object
  2;                                      !- Inlet Port

OS:PortList,
  {658aab6f-c396-44bd-9a6f-95c600ed3441}, !- Handle
  {8e690cdc-0daf-4448-86b4-22401035f86d}, !- Name
  {7c65d8b7-8ba1-485c-ad30-25ba4b42f886}; !- HVAC Component

OS:PortList,
  {0f1cf6e0-4f52-4607-ba7e-0e24fa43accf}, !- Handle
  {6b01dddb-dedd-422c-9694-4822b5763b8e}, !- Name
  {7c65d8b7-8ba1-485c-ad30-25ba4b42f886}; !- HVAC Component

OS:Sizing:Zone,
  {fc9fe77b-783d-450d-808d-0244b8115113}, !- Handle
  {7c65d8b7-8ba1-485c-ad30-25ba4b42f886}, !- Zone or ZoneList Name
  SupplyAirTemperature,                   !- Zone Cooling Design Supply Air Temperature Input Method
  14,                                     !- Zone Cooling Design Supply Air Temperature {C}
  11.11,                                  !- Zone Cooling Design Supply Air Temperature Difference {deltaC}
  SupplyAirTemperature,                   !- Zone Heating Design Supply Air Temperature Input Method
  40,                                     !- Zone Heating Design Supply Air Temperature {C}
  11.11,                                  !- Zone Heating Design Supply Air Temperature Difference {deltaC}
  0.0085,                                 !- Zone Cooling Design Supply Air Humidity Ratio {kg-H2O/kg-air}
  0.008,                                  !- Zone Heating Design Supply Air Humidity Ratio {kg-H2O/kg-air}
  ,                                       !- Zone Heating Sizing Factor
  ,                                       !- Zone Cooling Sizing Factor
  DesignDay,                              !- Cooling Design Air Flow Method
  ,                                       !- Cooling Design Air Flow Rate {m3/s}
  ,                                       !- Cooling Minimum Air Flow per Zone Floor Area {m3/s-m2}
  ,                                       !- Cooling Minimum Air Flow {m3/s}
  ,                                       !- Cooling Minimum Air Flow Fraction
  DesignDay,                              !- Heating Design Air Flow Method
  ,                                       !- Heating Design Air Flow Rate {m3/s}
  ,                                       !- Heating Maximum Air Flow per Zone Floor Area {m3/s-m2}
  ,                                       !- Heating Maximum Air Flow {m3/s}
  ,                                       !- Heating Maximum Air Flow Fraction
  ,                                       !- Design Zone Air Distribution Effectiveness in Cooling Mode
  ,                                       !- Design Zone Air Distribution Effectiveness in Heating Mode
  No,                                     !- Account for Dedicated Outdoor Air System
  NeutralSupplyAir,                       !- Dedicated Outdoor Air System Control Strategy
  autosize,                               !- Dedicated Outdoor Air Low Setpoint Temperature for Design {C}
  autosize;                               !- Dedicated Outdoor Air High Setpoint Temperature for Design {C}

OS:ZoneHVAC:EquipmentList,
  {27cbf9d4-4278-47fe-a621-18dad47901b1}, !- Handle
  Zone HVAC Equipment List 1,             !- Name
  {7c65d8b7-8ba1-485c-ad30-25ba4b42f886}; !- Thermal Zone

OS:ThermalZone,
  {ece87184-4c4c-4d01-b97d-ef4b96298551}, !- Handle
  garage zone,                            !- Name
  ,                                       !- Multiplier
  ,                                       !- Ceiling Height {m}
  ,                                       !- Volume {m3}
  ,                                       !- Floor Area {m2}
  ,                                       !- Zone Inside Convection Algorithm
  ,                                       !- Zone Outside Convection Algorithm
  ,                                       !- Zone Conditioning Equipment List Name
  {1a74da35-a0c7-4c1c-ab88-771d104d49e4}, !- Zone Air Inlet Port List
  {4b618af8-91c4-44bf-ba22-7b1aecb8be3c}, !- Zone Air Exhaust Port List
  {db58707a-de77-4370-8883-28e3e13d9bd9}, !- Zone Air Node Name
  ,                                       !- Zone Return Air Node Name
  ,                                       !- Primary Daylighting Control Name
  ,                                       !- Fraction of Zone Controlled by Primary Daylighting Control
  ,                                       !- Secondary Daylighting Control Name
  ,                                       !- Fraction of Zone Controlled by Secondary Daylighting Control
  ,                                       !- Illuminance Map Name
  ,                                       !- Group Rendering Name
  ,                                       !- Thermostat Name
  No;                                     !- Use Ideal Air Loads

OS:Node,
  {766ad967-3d81-4895-9c04-f5a47932e644}, !- Handle
  Node 2,                                 !- Name
  {db58707a-de77-4370-8883-28e3e13d9bd9}, !- Inlet Port
  ;                                       !- Outlet Port

OS:Connection,
  {db58707a-de77-4370-8883-28e3e13d9bd9}, !- Handle
  {c4c2da42-7e10-4f75-94f6-ce3c82b7eec1}, !- Name
  {ece87184-4c4c-4d01-b97d-ef4b96298551}, !- Source Object
  11,                                     !- Outlet Port
  {766ad967-3d81-4895-9c04-f5a47932e644}, !- Target Object
  2;                                      !- Inlet Port

OS:PortList,
  {1a74da35-a0c7-4c1c-ab88-771d104d49e4}, !- Handle
  {4f17d012-9c96-40da-9eb1-d54a451ba8f7}, !- Name
  {ece87184-4c4c-4d01-b97d-ef4b96298551}; !- HVAC Component

OS:PortList,
  {4b618af8-91c4-44bf-ba22-7b1aecb8be3c}, !- Handle
  {9eed6076-dbc9-4d14-b85c-9a04c2f0ceac}, !- Name
  {ece87184-4c4c-4d01-b97d-ef4b96298551}; !- HVAC Component

OS:Sizing:Zone,
  {9e0d1e93-5a88-4781-9661-850db50871bb}, !- Handle
  {ece87184-4c4c-4d01-b97d-ef4b96298551}, !- Zone or ZoneList Name
  SupplyAirTemperature,                   !- Zone Cooling Design Supply Air Temperature Input Method
  14,                                     !- Zone Cooling Design Supply Air Temperature {C}
  11.11,                                  !- Zone Cooling Design Supply Air Temperature Difference {deltaC}
  SupplyAirTemperature,                   !- Zone Heating Design Supply Air Temperature Input Method
  40,                                     !- Zone Heating Design Supply Air Temperature {C}
  11.11,                                  !- Zone Heating Design Supply Air Temperature Difference {deltaC}
  0.0085,                                 !- Zone Cooling Design Supply Air Humidity Ratio {kg-H2O/kg-air}
  0.008,                                  !- Zone Heating Design Supply Air Humidity Ratio {kg-H2O/kg-air}
  ,                                       !- Zone Heating Sizing Factor
  ,                                       !- Zone Cooling Sizing Factor
  DesignDay,                              !- Cooling Design Air Flow Method
  ,                                       !- Cooling Design Air Flow Rate {m3/s}
  ,                                       !- Cooling Minimum Air Flow per Zone Floor Area {m3/s-m2}
  ,                                       !- Cooling Minimum Air Flow {m3/s}
  ,                                       !- Cooling Minimum Air Flow Fraction
  DesignDay,                              !- Heating Design Air Flow Method
  ,                                       !- Heating Design Air Flow Rate {m3/s}
  ,                                       !- Heating Maximum Air Flow per Zone Floor Area {m3/s-m2}
  ,                                       !- Heating Maximum Air Flow {m3/s}
  ,                                       !- Heating Maximum Air Flow Fraction
  ,                                       !- Design Zone Air Distribution Effectiveness in Cooling Mode
  ,                                       !- Design Zone Air Distribution Effectiveness in Heating Mode
  No,                                     !- Account for Dedicated Outdoor Air System
  NeutralSupplyAir,                       !- Dedicated Outdoor Air System Control Strategy
  autosize,                               !- Dedicated Outdoor Air Low Setpoint Temperature for Design {C}
  autosize;                               !- Dedicated Outdoor Air High Setpoint Temperature for Design {C}

OS:ZoneHVAC:EquipmentList,
  {b8bb5d1d-f73e-439a-9f05-d6ae844647db}, !- Handle
  Zone HVAC Equipment List 2,             !- Name
  {ece87184-4c4c-4d01-b97d-ef4b96298551}; !- Thermal Zone

OS:Space,
  {68942a95-9ead-4ef9-92b5-c837f840c2ac}, !- Handle
  garage space,                           !- Name
  {d13fc65b-4ba1-445b-989d-f70b1eac676a}, !- Space Type Name
  ,                                       !- Default Construction Set Name
  ,                                       !- Default Schedule Set Name
  -0,                                     !- Direction of Relative North {deg}
  0,                                      !- X Origin {m}
  0,                                      !- Y Origin {m}
  0,                                      !- Z Origin {m}
  ,                                       !- Building Story Name
  {ece87184-4c4c-4d01-b97d-ef4b96298551}, !- Thermal Zone Name
  ,                                       !- Part of Total Floor Area
  ,                                       !- Design Specification Outdoor Air Object Name
  {eeb491a3-73f8-458a-a20e-81ecd6ccc0d8}; !- Building Unit Name

OS:Surface,
  {d87c6807-a84a-4e69-86d2-a84e58db6f38}, !- Handle
  Surface 1,                              !- Name
  Floor,                                  !- Surface Type
  ,                                       !- Construction Name
  {68942a95-9ead-4ef9-92b5-c837f840c2ac}, !- Space Name
  Ground,                                 !- Outside Boundary Condition
  ,                                       !- Outside Boundary Condition Object
  NoSun,                                  !- Sun Exposure
  NoWind,                                 !- Wind Exposure
  ,                                       !- View Factor to Ground
  ,                                       !- Number of Vertices
  5.57695129776527, -3.048, 0,            !- X,Y,Z Vertex 1 {m}
  5.57695129776527, 3.048, 0,             !- X,Y,Z Vertex 2 {m}
  11.6729512977653, 3.048, 0,             !- X,Y,Z Vertex 3 {m}
  11.6729512977653, -3.048, 0;            !- X,Y,Z Vertex 4 {m}

OS:Surface,
  {23f43855-2a35-4e66-b42b-d3be31560df7}, !- Handle
  Surface 2,                              !- Name
  Wall,                                   !- Surface Type
  ,                                       !- Construction Name
  {68942a95-9ead-4ef9-92b5-c837f840c2ac}, !- Space Name
  Surface,                                !- Outside Boundary Condition
  {d0ce134e-e5a6-49b3-a2be-dd74d88a9b4f}, !- Outside Boundary Condition Object
  NoSun,                                  !- Sun Exposure
  NoWind,                                 !- Wind Exposure
  ,                                       !- View Factor to Ground
  ,                                       !- Number of Vertices
  5.57695129776527, 3.048, 2.4384,        !- X,Y,Z Vertex 1 {m}
  5.57695129776527, 3.048, 0,             !- X,Y,Z Vertex 2 {m}
  5.57695129776527, 0, 0,                 !- X,Y,Z Vertex 3 {m}
  5.57695129776527, 0, 2.4384;            !- X,Y,Z Vertex 4 {m}

OS:Surface,
  {cfde4d9b-6baa-4b76-8c75-cbc4ac8509cb}, !- Handle
  Surface 3,                              !- Name
  Wall,                                   !- Surface Type
  ,                                       !- Construction Name
  {68942a95-9ead-4ef9-92b5-c837f840c2ac}, !- Space Name
  Surface,                                !- Outside Boundary Condition
  {3acb0c56-742f-43b2-a9ba-db583b458bcb}, !- Outside Boundary Condition Object
  NoSun,                                  !- Sun Exposure
  NoWind,                                 !- Wind Exposure
  ,                                       !- View Factor to Ground
  ,                                       !- Number of Vertices
  11.6729512977653, 3.048, 2.4384,        !- X,Y,Z Vertex 1 {m}
  11.6729512977653, 3.048, 0,             !- X,Y,Z Vertex 2 {m}
  5.57695129776527, 3.048, 0,             !- X,Y,Z Vertex 3 {m}
  5.57695129776527, 3.048, 2.4384;        !- X,Y,Z Vertex 4 {m}

OS:Surface,
  {1d6f4214-0fdf-42da-b2bf-c4aaa749fafd}, !- Handle
  Surface 4,                              !- Name
  Wall,                                   !- Surface Type
  ,                                       !- Construction Name
  {68942a95-9ead-4ef9-92b5-c837f840c2ac}, !- Space Name
  Outdoors,                               !- Outside Boundary Condition
  ,                                       !- Outside Boundary Condition Object
  SunExposed,                             !- Sun Exposure
  WindExposed,                            !- Wind Exposure
  ,                                       !- View Factor to Ground
  ,                                       !- Number of Vertices
  11.6729512977653, -3.048, 2.4384,       !- X,Y,Z Vertex 1 {m}
  11.6729512977653, -3.048, 0,            !- X,Y,Z Vertex 2 {m}
  11.6729512977653, 3.048, 0,             !- X,Y,Z Vertex 3 {m}
  11.6729512977653, 3.048, 2.4384;        !- X,Y,Z Vertex 4 {m}

OS:Surface,
  {4759058f-f1db-4c80-9b3d-0af907d476ff}, !- Handle
  Surface 5,                              !- Name
  Wall,                                   !- Surface Type
  ,                                       !- Construction Name
  {68942a95-9ead-4ef9-92b5-c837f840c2ac}, !- Space Name
  Outdoors,                               !- Outside Boundary Condition
  ,                                       !- Outside Boundary Condition Object
  SunExposed,                             !- Sun Exposure
  WindExposed,                            !- Wind Exposure
  ,                                       !- View Factor to Ground
  ,                                       !- Number of Vertices
  5.57695129776527, -3.048, 2.4384,       !- X,Y,Z Vertex 1 {m}
  5.57695129776527, -3.048, 0,            !- X,Y,Z Vertex 2 {m}
  11.6729512977653, -3.048, 0,            !- X,Y,Z Vertex 3 {m}
  11.6729512977653, -3.048, 2.4384;       !- X,Y,Z Vertex 4 {m}

OS:Surface,
  {fc9e3dd1-4ca2-4d20-aa6f-c421c1439f9a}, !- Handle
  Surface 6,                              !- Name
  RoofCeiling,                            !- Surface Type
  ,                                       !- Construction Name
  {68942a95-9ead-4ef9-92b5-c837f840c2ac}, !- Space Name
  Surface,                                !- Outside Boundary Condition
  {fcecd620-4f2e-40df-bf96-49fe1c97b9db}, !- Outside Boundary Condition Object
  NoSun,                                  !- Sun Exposure
  NoWind,                                 !- Wind Exposure
  ,                                       !- View Factor to Ground
  ,                                       !- Number of Vertices
  11.6729512977653, -3.048, 2.4384,       !- X,Y,Z Vertex 1 {m}
  11.6729512977653, 3.048, 2.4384,        !- X,Y,Z Vertex 2 {m}
  5.57695129776527, 3.048, 2.4384,        !- X,Y,Z Vertex 3 {m}
  5.57695129776527, -3.048, 2.4384;       !- X,Y,Z Vertex 4 {m}

OS:SpaceType,
  {d13fc65b-4ba1-445b-989d-f70b1eac676a}, !- Handle
  Space Type 1,                           !- Name
  ,                                       !- Default Construction Set Name
  ,                                       !- Default Schedule Set Name
  ,                                       !- Group Rendering Name
  ,                                       !- Design Specification Outdoor Air Object Name
  ,                                       !- Standards Building Type
  garage;                                 !- Standards Space Type

OS:Space,
  {b227f258-837e-4cc9-bfde-03de2f8bb483}, !- Handle
  living space,                           !- Name
  {c171d25e-aa39-4c5a-98fc-28cc1a0e1f6c}, !- Space Type Name
  ,                                       !- Default Construction Set Name
  ,                                       !- Default Schedule Set Name
  -0,                                     !- Direction of Relative North {deg}
  0,                                      !- X Origin {m}
  0,                                      !- Y Origin {m}
  0,                                      !- Z Origin {m}
  ,                                       !- Building Story Name
  {7c65d8b7-8ba1-485c-ad30-25ba4b42f886}, !- Thermal Zone Name
  ,                                       !- Part of Total Floor Area
  ,                                       !- Design Specification Outdoor Air Object Name
  {eeb491a3-73f8-458a-a20e-81ecd6ccc0d8}; !- Building Unit Name

OS:Surface,
  {75de64d3-0ab9-46f5-98c8-ea15c3fe22ad}, !- Handle
  Surface 7,                              !- Name
  Floor,                                  !- Surface Type
  ,                                       !- Construction Name
  {b227f258-837e-4cc9-bfde-03de2f8bb483}, !- Space Name
  Surface,                                !- Outside Boundary Condition
  {5f91669d-1fae-499b-882f-d160b496d6c3}, !- Outside Boundary Condition Object
  NoSun,                                  !- Sun Exposure
  NoWind,                                 !- Wind Exposure
  ,                                       !- View Factor to Ground
  ,                                       !- Number of Vertices
  0, 0, 0,                                !- X,Y,Z Vertex 1 {m}
  0, 5.83647564888264, 0,                 !- X,Y,Z Vertex 2 {m}
  11.6729512977653, 5.83647564888264, 0,  !- X,Y,Z Vertex 3 {m}
  11.6729512977653, 3.048, 0,             !- X,Y,Z Vertex 4 {m}
  5.57695129776527, 3.048, 0,             !- X,Y,Z Vertex 5 {m}
  5.57695129776527, 0, 0;                 !- X,Y,Z Vertex 6 {m}

OS:Surface,
  {8669fae5-dbd6-471f-8eaa-86cd67db9cac}, !- Handle
  Surface 8,                              !- Name
  Wall,                                   !- Surface Type
  ,                                       !- Construction Name
  {b227f258-837e-4cc9-bfde-03de2f8bb483}, !- Space Name
  Outdoors,                               !- Outside Boundary Condition
  ,                                       !- Outside Boundary Condition Object
  SunExposed,                             !- Sun Exposure
  WindExposed,                            !- Wind Exposure
  ,                                       !- View Factor to Ground
  ,                                       !- Number of Vertices
  0, 5.83647564888264, 2.4384,            !- X,Y,Z Vertex 1 {m}
  0, 5.83647564888264, 0,                 !- X,Y,Z Vertex 2 {m}
  0, 0, 0,                                !- X,Y,Z Vertex 3 {m}
  0, 0, 2.4384;                           !- X,Y,Z Vertex 4 {m}

OS:Surface,
  {6aa526d3-4610-434d-a1e6-24790da15ddb}, !- Handle
  Surface 9,                              !- Name
  Wall,                                   !- Surface Type
  ,                                       !- Construction Name
  {b227f258-837e-4cc9-bfde-03de2f8bb483}, !- Space Name
  Outdoors,                               !- Outside Boundary Condition
  ,                                       !- Outside Boundary Condition Object
  SunExposed,                             !- Sun Exposure
  WindExposed,                            !- Wind Exposure
  ,                                       !- View Factor to Ground
  ,                                       !- Number of Vertices
  11.6729512977653, 5.83647564888264, 2.4384, !- X,Y,Z Vertex 1 {m}
  11.6729512977653, 5.83647564888264, 0,  !- X,Y,Z Vertex 2 {m}
  0, 5.83647564888264, 0,                 !- X,Y,Z Vertex 3 {m}
  0, 5.83647564888264, 2.4384;            !- X,Y,Z Vertex 4 {m}

OS:Surface,
  {4f69c316-7f64-4c8e-b4b0-634c523917d4}, !- Handle
  Surface 10,                             !- Name
  Wall,                                   !- Surface Type
  ,                                       !- Construction Name
  {b227f258-837e-4cc9-bfde-03de2f8bb483}, !- Space Name
  Outdoors,                               !- Outside Boundary Condition
  ,                                       !- Outside Boundary Condition Object
  SunExposed,                             !- Sun Exposure
  WindExposed,                            !- Wind Exposure
  ,                                       !- View Factor to Ground
  ,                                       !- Number of Vertices
  11.6729512977653, 3.048, 2.4384,        !- X,Y,Z Vertex 1 {m}
  11.6729512977653, 3.048, 0,             !- X,Y,Z Vertex 2 {m}
  11.6729512977653, 5.83647564888264, 0,  !- X,Y,Z Vertex 3 {m}
  11.6729512977653, 5.83647564888264, 2.4384; !- X,Y,Z Vertex 4 {m}

OS:Surface,
  {3acb0c56-742f-43b2-a9ba-db583b458bcb}, !- Handle
  Surface 11,                             !- Name
  Wall,                                   !- Surface Type
  ,                                       !- Construction Name
  {b227f258-837e-4cc9-bfde-03de2f8bb483}, !- Space Name
  Surface,                                !- Outside Boundary Condition
  {cfde4d9b-6baa-4b76-8c75-cbc4ac8509cb}, !- Outside Boundary Condition Object
  NoSun,                                  !- Sun Exposure
  NoWind,                                 !- Wind Exposure
  ,                                       !- View Factor to Ground
  ,                                       !- Number of Vertices
  5.57695129776527, 3.048, 2.4384,        !- X,Y,Z Vertex 1 {m}
  5.57695129776527, 3.048, 0,             !- X,Y,Z Vertex 2 {m}
  11.6729512977653, 3.048, 0,             !- X,Y,Z Vertex 3 {m}
  11.6729512977653, 3.048, 2.4384;        !- X,Y,Z Vertex 4 {m}

OS:Surface,
  {d0ce134e-e5a6-49b3-a2be-dd74d88a9b4f}, !- Handle
  Surface 12,                             !- Name
  Wall,                                   !- Surface Type
  ,                                       !- Construction Name
  {b227f258-837e-4cc9-bfde-03de2f8bb483}, !- Space Name
  Surface,                                !- Outside Boundary Condition
  {23f43855-2a35-4e66-b42b-d3be31560df7}, !- Outside Boundary Condition Object
  NoSun,                                  !- Sun Exposure
  NoWind,                                 !- Wind Exposure
  ,                                       !- View Factor to Ground
  ,                                       !- Number of Vertices
  5.57695129776527, 0, 2.4384,            !- X,Y,Z Vertex 1 {m}
  5.57695129776527, 0, 0,                 !- X,Y,Z Vertex 2 {m}
  5.57695129776527, 3.048, 0,             !- X,Y,Z Vertex 3 {m}
  5.57695129776527, 3.048, 2.4384;        !- X,Y,Z Vertex 4 {m}

OS:Surface,
  {5c5ff7a9-33d4-4501-9a36-9f3bac5c3c95}, !- Handle
  Surface 13,                             !- Name
  Wall,                                   !- Surface Type
  ,                                       !- Construction Name
  {b227f258-837e-4cc9-bfde-03de2f8bb483}, !- Space Name
  Outdoors,                               !- Outside Boundary Condition
  ,                                       !- Outside Boundary Condition Object
  SunExposed,                             !- Sun Exposure
  WindExposed,                            !- Wind Exposure
  ,                                       !- View Factor to Ground
  ,                                       !- Number of Vertices
  0, 0, 2.4384,                           !- X,Y,Z Vertex 1 {m}
  0, 0, 0,                                !- X,Y,Z Vertex 2 {m}
  5.57695129776527, 0, 0,                 !- X,Y,Z Vertex 3 {m}
  5.57695129776527, 0, 2.4384;            !- X,Y,Z Vertex 4 {m}

OS:Surface,
  {48a14b6b-10b0-4561-b07c-0a528ad520c9}, !- Handle
  Surface 14,                             !- Name
  RoofCeiling,                            !- Surface Type
  ,                                       !- Construction Name
  {b227f258-837e-4cc9-bfde-03de2f8bb483}, !- Space Name
  Surface,                                !- Outside Boundary Condition
  {79172331-10b1-4c50-bcff-b7ea4f06cf79}, !- Outside Boundary Condition Object
  NoSun,                                  !- Sun Exposure
  NoWind,                                 !- Wind Exposure
  ,                                       !- View Factor to Ground
  ,                                       !- Number of Vertices
  5.57695129776527, 0, 2.4384,            !- X,Y,Z Vertex 1 {m}
  5.57695129776527, 3.048, 2.4384,        !- X,Y,Z Vertex 2 {m}
  11.6729512977653, 3.048, 2.4384,        !- X,Y,Z Vertex 3 {m}
  11.6729512977653, 5.83647564888264, 2.4384, !- X,Y,Z Vertex 4 {m}