!- NOTE: Auto-generated from /test/osw_files/SFD_2000sqft_2story_SL_GRG_FR_3Beds_2Baths_Denver_Furnace_CentralAC.osw

OS:Version,
  {fc003c06-618b-4051-9b37-6b6f71b12672}, !- Handle
  2.2.0;                                  !- Version Identifier

OS:Building,
  {bf305633-c5a1-4881-9edf-ca5e1a8e1274}, !- Handle
  Building,                               !- Name
  ,                                       !- Building Sector Type
  ,                                       !- North Axis {deg}
  ,                                       !- Nominal Floor to Floor Height {m}
  ,                                       !- Space Type Name
  ,                                       !- Default Construction Set Name
  ,                                       !- Default Schedule Set Name
  3,                                      !- Standards Number of Stories
  3,                                      !- Standards Number of Above Ground Stories
  singlefamilydetached,                   !- Standards Building Type
  1;                                      !- Standards Number of Living Units

OS:YearDescription,
  {513d8dda-86cb-442a-b01c-1f7f0e0ac70e}; !- Handle

OS:SimulationControl,
  {2c487a4c-bac9-4ac5-b669-1e49d9da7c2b}, !- Handle
  ,                                       !- Do Zone Sizing Calculation
  ,                                       !- Do System Sizing Calculation
  ,                                       !- Do Plant Sizing Calculation
  No,                                     !- Run Simulation for Sizing Periods
  ;                                       !- Run Simulation for Weather File Run Periods

OS:Timestep,
  {4ebc9f1e-4707-402e-9844-67eb1ffbd522}, !- Handle
  6;                                      !- Number of Timesteps per Hour

OS:RunPeriod,
  {28df894d-6af9-4fb8-8f56-df1753344aa3}, !- Handle
  Run Period,                             !- Name
  1,                                      !- Begin Month
  1,                                      !- Begin Day of Month
  12,                                     !- End Month
  31,                                     !- End Day of Month
  ,                                       !- Use Weather File Holidays and Special Days
  ,                                       !- Use Weather File Daylight Saving Period
  ,                                       !- Apply Weekend Holiday Rule
  ,                                       !- Use Weather File Rain Indicators
  ,                                       !- Use Weather File Snow Indicators
  ;                                       !- Number of Times Runperiod to be Repeated

OS:Sizing:Parameters,
  {dde5af6f-7923-4600-a28a-7556673a0266}, !- Handle
  1.0,                                    !- Heating Sizing Factor
  1.0;                                    !- Cooling Sizing Factor

OS:ShadowCalculation,
  {ca758bea-4416-4626-9bba-3d8795c79bd6}, !- Handle
  20,                                     !- Calculation Frequency
  200;                                    !- Maximum Figures in Shadow Overlap Calculations

OS:SurfaceConvectionAlgorithm:Inside,
  {aaabfc36-718a-4ab0-b622-f186ebb45230}, !- Handle
  TARP;                                   !- Algorithm

OS:SurfaceConvectionAlgorithm:Outside,
  {9a0a9f6f-4bbd-4b12-a121-9492a1fcd7d6}, !- Handle
  DOE-2;                                  !- Algorithm

OS:HeatBalanceAlgorithm,
  {9d93e563-e1e0-46d7-9e39-d1c8aceb7212}, !- Handle
  ConductionTransferFunction,             !- Algorithm
  200;                                    !- Surface Temperature Upper Limit {C}

OS:ZoneCapacitanceMultiplier:ResearchSpecial,
  {6bfced16-b16f-47f6-8223-f7e267d75d19}, !- Handle
  ,                                       !- Temperature Capacity Multiplier
  15,                                     !- Humidity Capacity Multiplier
  ;                                       !- Carbon Dioxide Capacity Multiplier

OS:ThermalZone,
  {61da890f-ee71-42e7-95e5-8b25e7c05cde}, !- Handle
  living zone,                            !- Name
  ,                                       !- Multiplier
  ,                                       !- Ceiling Height {m}
  ,                                       !- Volume {m3}
  ,                                       !- Floor Area {m2}
  ,                                       !- Zone Inside Convection Algorithm
  ,                                       !- Zone Outside Convection Algorithm
  ,                                       !- Zone Conditioning Equipment List Name
  {dcf4d918-8de1-4d89-b731-b73a5856a7b4}, !- Zone Air Inlet Port List
  {6a96ecdf-974c-4654-8c01-51e1f7bfd0c6}, !- Zone Air Exhaust Port List
  {774d6723-db77-4469-8d30-6556ea1d578a}, !- Zone Air Node Name
  {4039e0f6-7275-4568-a6ed-373c8468873f}, !- Zone Return Air Node Name
  ,                                       !- Primary Daylighting Control Name
  ,                                       !- Fraction of Zone Controlled by Primary Daylighting Control
  ,                                       !- Secondary Daylighting Control Name
  ,                                       !- Fraction of Zone Controlled by Secondary Daylighting Control
  ,                                       !- Illuminance Map Name
  ,                                       !- Group Rendering Name
  {0b104c23-0f36-4248-b462-88c95a334b5e}, !- Thermostat Name
  No;                                     !- Use Ideal Air Loads

OS:Node,
  {d65d2cae-7fc7-4d29-91b8-8e61d06e4077}, !- Handle
  Node 1,                                 !- Name
  {774d6723-db77-4469-8d30-6556ea1d578a}, !- Inlet Port
  ;                                       !- Outlet Port

OS:Connection,
  {774d6723-db77-4469-8d30-6556ea1d578a}, !- Handle
  {af7bbe2c-20c1-4012-9297-93dd5ae06aff}, !- Name
  {61da890f-ee71-42e7-95e5-8b25e7c05cde}, !- Source Object
  11,                                     !- Outlet Port
  {d65d2cae-7fc7-4d29-91b8-8e61d06e4077}, !- Target Object
  2;                                      !- Inlet Port

OS:PortList,
  {dcf4d918-8de1-4d89-b731-b73a5856a7b4}, !- Handle
  {dcefe0e7-7bf3-48c9-9681-89e41e761600}, !- Name
  {61da890f-ee71-42e7-95e5-8b25e7c05cde}, !- HVAC Component
  {e0ba7d34-d625-4943-80b4-7e5c4649cc54}; !- Port 1

OS:PortList,
  {6a96ecdf-974c-4654-8c01-51e1f7bfd0c6}, !- Handle
  {9e294b59-a85d-483c-a6ec-0e213d5fcc0b}, !- Name
  {61da890f-ee71-42e7-95e5-8b25e7c05cde}; !- HVAC Component

OS:Sizing:Zone,
  {3514b344-8d26-4190-b957-96a0ce24f98b}, !- Handle
  {61da890f-ee71-42e7-95e5-8b25e7c05cde}, !- Zone or ZoneList Name
  SupplyAirTemperature,                   !- Zone Cooling Design Supply Air Temperature Input Method
  14,                                     !- Zone Cooling Design Supply Air Temperature {C}
  11.11,                                  !- Zone Cooling Design Supply Air Temperature Difference {deltaC}
  SupplyAirTemperature,                   !- Zone Heating Design Supply Air Temperature Input Method
  40,                                     !- Zone Heating Design Supply Air Temperature {C}
  11.11,                                  !- Zone Heating Design Supply Air Temperature Difference {deltaC}
  0.0085,                                 !- Zone Cooling Design Supply Air Humidity Ratio {kg-H2O/kg-air}
  0.008,                                  !- Zone Heating Design Supply Air Humidity Ratio {kg-H2O/kg-air}
  ,                                       !- Zone Heating Sizing Factor
  ,                                       !- Zone Cooling Sizing Factor
  DesignDay,                              !- Cooling Design Air Flow Method
  ,                                       !- Cooling Design Air Flow Rate {m3/s}
  ,                                       !- Cooling Minimum Air Flow per Zone Floor Area {m3/s-m2}
  ,                                       !- Cooling Minimum Air Flow {m3/s}
  ,                                       !- Cooling Minimum Air Flow Fraction
  DesignDay,                              !- Heating Design Air Flow Method
  ,                                       !- Heating Design Air Flow Rate {m3/s}
  ,                                       !- Heating Maximum Air Flow per Zone Floor Area {m3/s-m2}
  ,                                       !- Heating Maximum Air Flow {m3/s}
  ,                                       !- Heating Maximum Air Flow Fraction
  ,                                       !- Design Zone Air Distribution Effectiveness in Cooling Mode
  ,                                       !- Design Zone Air Distribution Effectiveness in Heating Mode
  No,                                     !- Account for Dedicated Outdoor Air System
  NeutralSupplyAir,                       !- Dedicated Outdoor Air System Control Strategy
  autosize,                               !- Dedicated Outdoor Air Low Setpoint Temperature for Design {C}
  autosize;                               !- Dedicated Outdoor Air High Setpoint Temperature for Design {C}

OS:ZoneHVAC:EquipmentList,
  {f8e8dfc3-66f2-47db-8fa2-c1de851df7bd}, !- Handle
  Zone HVAC Equipment List 1,             !- Name
  {61da890f-ee71-42e7-95e5-8b25e7c05cde}, !- Thermal Zone
  {19962203-0ae1-4852-9fae-116a35f466c9}, !- Zone Equipment 1
  1,                                      !- Zone Equipment Cooling Sequence 1
  1;                                      !- Zone Equipment Heating or No-Load Sequence 1

OS:ThermalZone,
  {083bd9f8-5d0e-48f4-947e-748f5ed69b7f}, !- Handle
  garage zone,                            !- Name
  ,                                       !- Multiplier
  ,                                       !- Ceiling Height {m}
  ,                                       !- Volume {m3}
  ,                                       !- Floor Area {m2}
  ,                                       !- Zone Inside Convection Algorithm
  ,                                       !- Zone Outside Convection Algorithm
  ,                                       !- Zone Conditioning Equipment List Name
  {74cc125f-6334-4244-bb35-dc0f0e6a9fa7}, !- Zone Air Inlet Port List
  {b926b38e-b08f-4e42-99bd-7d6d158d79ff}, !- Zone Air Exhaust Port List
  {332cc392-93c5-4248-872d-df89dbe58ca1}, !- Zone Air Node Name
  ,                                       !- Zone Return Air Node Name
  ,                                       !- Primary Daylighting Control Name
  ,                                       !- Fraction of Zone Controlled by Primary Daylighting Control
  ,                                       !- Secondary Daylighting Control Name
  ,                                       !- Fraction of Zone Controlled by Secondary Daylighting Control
  ,                                       !- Illuminance Map Name
  ,                                       !- Group Rendering Name
  ,                                       !- Thermostat Name
  No;                                     !- Use Ideal Air Loads

OS:Node,
  {566dbfb6-fa21-46ea-a3ba-2c311a8ce4e6}, !- Handle
  Node 2,                                 !- Name
  {332cc392-93c5-4248-872d-df89dbe58ca1}, !- Inlet Port
  ;                                       !- Outlet Port

OS:Connection,
  {332cc392-93c5-4248-872d-df89dbe58ca1}, !- Handle
  {654cfc3d-3d7a-42aa-877f-f55210151b99}, !- Name
  {083bd9f8-5d0e-48f4-947e-748f5ed69b7f}, !- Source Object
  11,                                     !- Outlet Port
  {566dbfb6-fa21-46ea-a3ba-2c311a8ce4e6}, !- Target Object
  2;                                      !- Inlet Port

OS:PortList,
  {74cc125f-6334-4244-bb35-dc0f0e6a9fa7}, !- Handle
  {dbd771ab-d20e-4ae6-bdc2-cdbce4043c27}, !- Name
  {083bd9f8-5d0e-48f4-947e-748f5ed69b7f}; !- HVAC Component

OS:PortList,
  {b926b38e-b08f-4e42-99bd-7d6d158d79ff}, !- Handle
  {73815573-3e0f-48a4-bf82-f99ce1104457}, !- Name
  {083bd9f8-5d0e-48f4-947e-748f5ed69b7f}; !- HVAC Component

OS:Sizing:Zone,
  {07c7230c-ef56-4ee9-bdef-b672b77874ea}, !- Handle
  {083bd9f8-5d0e-48f4-947e-748f5ed69b7f}, !- Zone or ZoneList Name
  SupplyAirTemperature,                   !- Zone Cooling Design Supply Air Temperature Input Method
  14,                                     !- Zone Cooling Design Supply Air Temperature {C}
  11.11,                                  !- Zone Cooling Design Supply Air Temperature Difference {deltaC}
  SupplyAirTemperature,                   !- Zone Heating Design Supply Air Temperature Input Method
  40,                                     !- Zone Heating Design Supply Air Temperature {C}
  11.11,                                  !- Zone Heating Design Supply Air Temperature Difference {deltaC}
  0.0085,                                 !- Zone Cooling Design Supply Air Humidity Ratio {kg-H2O/kg-air}
  0.008,                                  !- Zone Heating Design Supply Air Humidity Ratio {kg-H2O/kg-air}
  ,                                       !- Zone Heating Sizing Factor
  ,                                       !- Zone Cooling Sizing Factor
  DesignDay,                              !- Cooling Design Air Flow Method
  ,                                       !- Cooling Design Air Flow Rate {m3/s}
  ,                                       !- Cooling Minimum Air Flow per Zone Floor Area {m3/s-m2}
  ,                                       !- Cooling Minimum Air Flow {m3/s}
  ,                                       !- Cooling Minimum Air Flow Fraction
  DesignDay,                              !- Heating Design Air Flow Method
  ,                                       !- Heating Design Air Flow Rate {m3/s}
  ,                                       !- Heating Maximum Air Flow per Zone Floor Area {m3/s-m2}
  ,                                       !- Heating Maximum Air Flow {m3/s}
  ,                                       !- Heating Maximum Air Flow Fraction
  ,                                       !- Design Zone Air Distribution Effectiveness in Cooling Mode
  ,                                       !- Design Zone Air Distribution Effectiveness in Heating Mode
  No,                                     !- Account for Dedicated Outdoor Air System
  NeutralSupplyAir,                       !- Dedicated Outdoor Air System Control Strategy
  autosize,                               !- Dedicated Outdoor Air Low Setpoint Temperature for Design {C}
  autosize;                               !- Dedicated Outdoor Air High Setpoint Temperature for Design {C}

OS:ZoneHVAC:EquipmentList,
  {837ef8f1-df1a-4a87-8ddf-2e1d59a5e356}, !- Handle
  Zone HVAC Equipment List 2,             !- Name
  {083bd9f8-5d0e-48f4-947e-748f5ed69b7f}; !- Thermal Zone

OS:Space,
  {bd0fde6e-4f99-449f-8ad9-4b07c0d97b60}, !- Handle
  garage space,                           !- Name
  {8fb230f9-e19e-4b3c-bf6f-adc5a230e13d}, !- Space Type Name
  ,                                       !- Default Construction Set Name
  ,                                       !- Default Schedule Set Name
  -0,                                     !- Direction of Relative North {deg}
  0,                                      !- X Origin {m}
  0,                                      !- Y Origin {m}
  0,                                      !- Z Origin {m}
  ,                                       !- Building Story Name
  {083bd9f8-5d0e-48f4-947e-748f5ed69b7f}, !- Thermal Zone Name
  ,                                       !- Part of Total Floor Area
  ,                                       !- Design Specification Outdoor Air Object Name
  {2e99d403-449f-449d-91ce-5f72724e8b26}; !- Building Unit Name

OS:Surface,
  {840bdb2e-569c-4f9a-a410-397513fd77c7}, !- Handle
  Surface 1,                              !- Name
  Floor,                                  !- Surface Type
  ,                                       !- Construction Name
  {bd0fde6e-4f99-449f-8ad9-4b07c0d97b60}, !- Space Name
  Ground,                                 !- Outside Boundary Condition
  ,                                       !- Outside Boundary Condition Object
  NoSun,                                  !- Sun Exposure
  NoWind,                                 !- Wind Exposure
  ,                                       !- View Factor to Ground
  ,                                       !- Number of Vertices
  7.1330661888875, -3.048, 0,             !- X,Y,Z Vertex 1 {m}
  7.1330661888875, 3.048, 0,              !- X,Y,Z Vertex 2 {m}
  10.7906661888875, 3.048, 0,             !- X,Y,Z Vertex 3 {m}
  10.7906661888875, -3.048, 0;            !- X,Y,Z Vertex 4 {m}

OS:Surface,
  {95796edd-8800-449f-adf8-7ab899e8af75}, !- Handle
  Surface 2,                              !- Name
  Wall,                                   !- Surface Type
  ,                                       !- Construction Name
  {bd0fde6e-4f99-449f-8ad9-4b07c0d97b60}, !- Space Name
  Surface,                                !- Outside Boundary Condition
  {bf8a0607-b3fe-4490-b8f3-ad2f30efdcfc}, !- Outside Boundary Condition Object
  NoSun,                                  !- Sun Exposure
  NoWind,                                 !- Wind Exposure
  ,                                       !- View Factor to Ground
  ,                                       !- Number of Vertices
  7.1330661888875, 3.048, 2.4384,         !- X,Y,Z Vertex 1 {m}
  7.1330661888875, 3.048, 0,              !- X,Y,Z Vertex 2 {m}
  7.1330661888875, 0, 0,                  !- X,Y,Z Vertex 3 {m}
  7.1330661888875, 0, 2.4384;             !- X,Y,Z Vertex 4 {m}

OS:Surface,
  {66c493df-456c-4f7c-af26-4fe4a7fcc696}, !- Handle
  Surface 3,                              !- Name
  Wall,                                   !- Surface Type
  ,                                       !- Construction Name
  {bd0fde6e-4f99-449f-8ad9-4b07c0d97b60}, !- Space Name
  Surface,                                !- Outside Boundary Condition
  {d268f39f-ba0a-40ce-8d6b-61f551959421}, !- Outside Boundary Condition Object
  NoSun,                                  !- Sun Exposure
  NoWind,                                 !- Wind Exposure
  ,                                       !- View Factor to Ground
  ,                                       !- Number of Vertices
  10.7906661888875, 3.048, 2.4384,        !- X,Y,Z Vertex 1 {m}
  10.7906661888875, 3.048, 0,             !- X,Y,Z Vertex 2 {m}
  7.1330661888875, 3.048, 0,              !- X,Y,Z Vertex 3 {m}
  7.1330661888875, 3.048, 2.4384;         !- X,Y,Z Vertex 4 {m}

OS:Surface,
  {df8b7e5d-f43e-41e6-bd5d-b1de3b261e40}, !- Handle
  Surface 4,                              !- Name
  Wall,                                   !- Surface Type
  ,                                       !- Construction Name
  {bd0fde6e-4f99-449f-8ad9-4b07c0d97b60}, !- Space Name
  Outdoors,                               !- Outside Boundary Condition
  ,                                       !- Outside Boundary Condition Object
  SunExposed,                             !- Sun Exposure
  WindExposed,                            !- Wind Exposure
  ,                                       !- View Factor to Ground
  ,                                       !- Number of Vertices
  10.7906661888875, -3.048, 2.4384,       !- X,Y,Z Vertex 1 {m}
  10.7906661888875, -3.048, 0,            !- X,Y,Z Vertex 2 {m}
  10.7906661888875, 3.048, 0,             !- X,Y,Z Vertex 3 {m}
  10.7906661888875, 3.048, 2.4384;        !- X,Y,Z Vertex 4 {m}

OS:Surface,
  {87da0755-10aa-4667-b5c0-537ecb6ab0a9}, !- Handle
  Surface 5,                              !- Name
  Wall,                                   !- Surface Type
  ,                                       !- Construction Name
  {bd0fde6e-4f99-449f-8ad9-4b07c0d97b60}, !- Space Name
  Outdoors,                               !- Outside Boundary Condition
  ,                                       !- Outside Boundary Condition Object
  SunExposed,                             !- Sun Exposure
  WindExposed,                            !- Wind Exposure
  ,                                       !- View Factor to Ground
  ,                                       !- Number of Vertices
  7.1330661888875, -3.048, 2.4384,        !- X,Y,Z Vertex 1 {m}
  7.1330661888875, -3.048, 0,             !- X,Y,Z Vertex 2 {m}
  10.7906661888875, -3.048, 0,            !- X,Y,Z Vertex 3 {m}
  10.7906661888875, -3.048, 2.4384;       !- X,Y,Z Vertex 4 {m}

OS:Surface,
  {5bcbf662-a16c-4554-9db0-67b2a4466ef5}, !- Handle
  Surface 6,                              !- Name
  RoofCeiling,                            !- Surface Type
  ,                                       !- Construction Name
  {bd0fde6e-4f99-449f-8ad9-4b07c0d97b60}, !- Space Name
  Surface,                                !- Outside Boundary Condition
  {20818093-2515-4767-86c2-a49879a0da37}, !- Outside Boundary Condition Object
  NoSun,                                  !- Sun Exposure
  NoWind,                                 !- Wind Exposure
  ,                                       !- View Factor to Ground
  ,                                       !- Number of Vertices
  10.7906661888875, -3.048, 2.4384,       !- X,Y,Z Vertex 1 {m}
  10.7906661888875, 3.048, 2.4384,        !- X,Y,Z Vertex 2 {m}
  7.1330661888875, 3.048, 2.4384,         !- X,Y,Z Vertex 3 {m}
  7.1330661888875, -3.048, 2.4384;        !- X,Y,Z Vertex 4 {m}

OS:SpaceType,
  {8fb230f9-e19e-4b3c-bf6f-adc5a230e13d}, !- Handle
  Space Type 1,                           !- Name
  ,                                       !- Default Construction Set Name
  ,                                       !- Default Schedule Set Name
  ,                                       !- Group Rendering Name
  ,                                       !- Design Specification Outdoor Air Object Name
  ,                                       !- Standards Building Type
  garage;                                 !- Standards Space Type

OS:Space,
  {727ba36e-5a69-425e-ac20-283faf31b054}, !- Handle
  living space,                           !- Name
  {f4ec883c-8bc4-4b06-af47-edb70f055215}, !- Space Type Name
  ,                                       !- Default Construction Set Name
  ,                                       !- Default Schedule Set Name
  -0,                                     !- Direction of Relative North {deg}
  0,                                      !- X Origin {m}
  0,                                      !- Y Origin {m}
  0,                                      !- Z Origin {m}
  ,                                       !- Building Story Name
  {61da890f-ee71-42e7-95e5-8b25e7c05cde}, !- Thermal Zone Name
  ,                                       !- Part of Total Floor Area
  ,                                       !- Design Specification Outdoor Air Object Name
  {2e99d403-449f-449d-91ce-5f72724e8b26}; !- Building Unit Name

OS:Surface,
  {8e66df01-84d2-460d-b002-e41cdfb2d63b}, !- Handle
  Surface 7,                              !- Name
  Floor,                                  !- Surface Type
  ,                                       !- Construction Name
  {727ba36e-5a69-425e-ac20-283faf31b054}, !- Space Name
  Ground,                                 !- Outside Boundary Condition
  ,                                       !- Outside Boundary Condition Object
  NoSun,                                  !- Sun Exposure
  NoWind,                                 !- Wind Exposure
  ,                                       !- View Factor to Ground
  ,                                       !- Number of Vertices
  0, 0, 0,                                !- X,Y,Z Vertex 1 {m}
  0, 5.39533309444375, 0,                 !- X,Y,Z Vertex 2 {m}
  10.7906661888875, 5.39533309444375, 0,  !- X,Y,Z Vertex 3 {m}
  10.7906661888875, 3.048, 0,             !- X,Y,Z Vertex 4 {m}
  7.1330661888875, 3.048, 0,              !- X,Y,Z Vertex 5 {m}
  7.1330661888875, 0, 0;                  !- X,Y,Z Vertex 6 {m}

OS:Surface,
  {787f5202-839b-4038-a8e7-bbb5b23f6c3b}, !- Handle
  Surface 8,                              !- Name
  Wall,                                   !- Surface Type
  ,                                       !- Construction Name
  {727ba36e-5a69-425e-ac20-283faf31b054}, !- Space Name
  Outdoors,                               !- Outside Boundary Condition
  ,                                       !- Outside Boundary Condition Object
  SunExposed,                             !- Sun Exposure
  WindExposed,                            !- Wind Exposure
  ,                                       !- View Factor to Ground
  ,                                       !- Number of Vertices
  0, 5.39533309444375, 2.4384,            !- X,Y,Z Vertex 1 {m}
  0, 5.39533309444375, 0,                 !- X,Y,Z Vertex 2 {m}
  0, 0, 0,                                !- X,Y,Z Vertex 3 {m}
  0, 0, 2.4384;                           !- X,Y,Z Vertex 4 {m}

OS:Surface,
  {0bf9b467-0fc3-45cd-92b5-b3b8bacedfeb}, !- Handle
  Surface 9,                              !- Name
  Wall,                                   !- Surface Type
  ,                                       !- Construction Name
  {727ba36e-5a69-425e-ac20-283faf31b054}, !- Space Name
  Outdoors,                               !- Outside Boundary Condition
  ,                                       !- Outside Boundary Condition Object
  SunExposed,                             !- Sun Exposure
  WindExposed,                            !- Wind Exposure
  ,                                       !- View Factor to Ground
  ,                                       !- Number of Vertices
  10.7906661888875, 5.39533309444375, 2.4384, !- X,Y,Z Vertex 1 {m}
  10.7906661888875, 5.39533309444375, 0,  !- X,Y,Z Vertex 2 {m}
  0, 5.39533309444375, 0,                 !- X,Y,Z Vertex 3 {m}
  0, 5.39533309444375, 2.4384;            !- X,Y,Z Vertex 4 {m}

OS:Surface,
  {d9ebb94d-750b-4a2e-aedd-f2df029c28e0}, !- Handle
  Surface 10,                             !- Name
  Wall,                                   !- Surface Type
  ,                                       !- Construction Name
  {727ba36e-5a69-425e-ac20-283faf31b054}, !- Space Name
  Outdoors,                               !- Outside Boundary Condition
  ,                                       !- Outside Boundary Condition Object
  SunExposed,                             !- Sun Exposure
  WindExposed,                            !- Wind Exposure
  ,                                       !- View Factor to Ground
  ,                                       !- Number of Vertices
  10.7906661888875, 3.048, 2.4384,        !- X,Y,Z Vertex 1 {m}
  10.7906661888875, 3.048, 0,             !- X,Y,Z Vertex 2 {m}
  10.7906661888875, 5.39533309444375, 0,  !- X,Y,Z Vertex 3 {m}
  10.7906661888875, 5.39533309444375, 2.4384; !- X,Y,Z Vertex 4 {m}

OS:Surface,
  {d268f39f-ba0a-40ce-8d6b-61f551959421}, !- Handle
  Surface 11,                             !- Name
  Wall,                                   !- Surface Type
  ,                                       !- Construction Name
  {727ba36e-5a69-425e-ac20-283faf31b054}, !- Space Name
  Surface,                                !- Outside Boundary Condition
  {66c493df-456c-4f7c-af26-4fe4a7fcc696}, !- Outside Boundary Condition Object
  NoSun,                                  !- Sun Exposure
  NoWind,                                 !- Wind Exposure
  ,                                       !- View Factor to Ground
  ,                                       !- Number of Vertices
  7.1330661888875, 3.048, 2.4384,         !- X,Y,Z Vertex 1 {m}
  7.1330661888875, 3.048, 0,              !- X,Y,Z Vertex 2 {m}
  10.7906661888875, 3.048, 0,             !- X,Y,Z Vertex 3 {m}
  10.7906661888875, 3.048, 2.4384;        !- X,Y,Z Vertex 4 {m}

OS:Surface,
  {bf8a0607-b3fe-4490-b8f3-ad2f30efdcfc}, !- Handle
  Surface 12,                             !- Name
  Wall,                                   !- Surface Type
  ,                                       !- Construction Name
  {727ba36e-5a69-425e-ac20-283faf31b054}, !- Space Name
  Surface,                                !- Outside Boundary Condition
  {95796edd-8800-449f-adf8-7ab899e8af75}, !- Outside Boundary Condition Object
  NoSun,                                  !- Sun Exposure
  NoWind,                                 !- Wind Exposure
  ,                                       !- View Factor to Ground
  ,                                       !- Number of Vertices
  7.1330661888875, 0, 2.4384,             !- X,Y,Z Vertex 1 {m}
  7.1330661888875, 0, 0,                  !- X,Y,Z Vertex 2 {m}
  7.1330661888875, 3.048, 0,              !- X,Y,Z Vertex 3 {m}
  7.1330661888875, 3.048, 2.4384;         !- X,Y,Z Vertex 4 {m}

OS:Surface,
  {9649c343-7c34-49b8-bb54-a1ccfbb55e31}, !- Handle
  Surface 13,                             !- Name
  Wall,                                   !- Surface Type
  ,                                       !- Construction Name
  {727ba36e-5a69-425e-ac20-283faf31b054}, !- Space Name
  Outdoors,                               !- Outside Boundary Condition
  ,                                       !- Outside Boundary Condition Object
  SunExposed,                             !- Sun Exposure
  WindExposed,                            !- Wind Exposure
  ,                                       !- View Factor to Ground
  ,                                       !- Number of Vertices
  0, 0, 2.4384,                           !- X,Y,Z Vertex 1 {m}
  0, 0, 0,                                !- X,Y,Z Vertex 2 {m}
  7.1330661888875, 0, 0,                  !- X,Y,Z Vertex 3 {m}
  7.1330661888875, 0, 2.4384;             !- X,Y,Z Vertex 4 {m}

OS:Surface,
  {2fb62bef-6064-4ee8-9b98-e82cee1e4cd3}, !- Handle
  Surface 14,                             !- Name
  RoofCeiling,                            !- Surface Type
  ,                                       !- Construction Name
  {727ba36e-5a69-425e-ac20-283faf31b054}, !- Space Name
  Surface,                                !- Outside Boundary Condition
  {22311bf8-be36-4fc6-bb76-d28bb56e0912}, !- Outside Boundary Condition Object
  NoSun,                                  !- Sun Exposure
  NoWind,                                 !- Wind Exposure
  ,                                       !- View Factor to Ground
  ,                                       !- Number of Vertices