!- NOTE: Auto-generated from /test/osw_files/SFD_2000sqft_2story_SL_GRG_FR_3Beds_2Baths_Denver_Furnace_CentralAC.osw

OS:Version,
  {fc003c06-618b-4051-9b37-6b6f71b12672}, !- Handle
  2.2.0;                                  !- Version Identifier

OS:Building,
  {bf305633-c5a1-4881-9edf-ca5e1a8e1274}, !- Handle
  Building,                               !- Name
  ,                                       !- Building Sector Type
  ,                                       !- North Axis {deg}
  ,                                       !- Nominal Floor to Floor Height {m}
  ,                                       !- Space Type Name
  ,                                       !- Default Construction Set Name
  ,                                       !- Default Schedule Set Name
  3,                                      !- Standards Number of Stories
  3,                                      !- Standards Number of Above Ground Stories
  singlefamilydetached,                   !- Standards Building Type
  1;                                      !- Standards Number of Living Units

OS:YearDescription,
  {513d8dda-86cb-442a-b01c-1f7f0e0ac70e}; !- Handle

OS:SimulationControl,
  {2c487a4c-bac9-4ac5-b669-1e49d9da7c2b}, !- Handle
  ,                                       !- Do Zone Sizing Calculation
  ,                                       !- Do System Sizing Calculation
  ,                                       !- Do Plant Sizing Calculation
  No,                                     !- Run Simulation for Sizing Periods
  ;                                       !- Run Simulation for Weather File Run Periods

OS:Timestep,
  {4ebc9f1e-4707-402e-9844-67eb1ffbd522}, !- Handle
  6;                                      !- Number of Timesteps per Hour

OS:RunPeriod,
  {28df894d-6af9-4fb8-8f56-df1753344aa3}, !- Handle
  Run Period,                             !- Name
  1,                                      !- Begin Month
  1,                                      !- Begin Day of Month
  12,                                     !- End Month
  31,                                     !- End Day of Month
  ,                                       !- Use Weather File Holidays and Special Days
  ,                                       !- Use Weather File Daylight Saving Period
  ,                                       !- Apply Weekend Holiday Rule
  ,                                       !- Use Weather File Rain Indicators
  ,                                       !- Use Weather File Snow Indicators
  ;                                       !- Number of Times Runperiod to be Repeated

OS:Sizing:Parameters,
  {dde5af6f-7923-4600-a28a-7556673a0266}, !- Handle
  1.0,                                    !- Heating Sizing Factor
  1.0;                                    !- Cooling Sizing Factor

OS:ShadowCalculation,
  {ca758bea-4416-4626-9bba-3d8795c79bd6}, !- Handle
  20,                                     !- Calculation Frequency
  200;                                    !- Maximum Figures in Shadow Overlap Calculations

OS:SurfaceConvectionAlgorithm:Inside,
  {aaabfc36-718a-4ab0-b622-f186ebb45230}, !- Handle
  TARP;                                   !- Algorithm

OS:SurfaceConvectionAlgorithm:Outside,
  {9a0a9f6f-4bbd-4b12-a121-9492a1fcd7d6}, !- Handle
  DOE-2;                                  !- Algorithm

OS:HeatBalanceAlgorithm,
  {9d93e563-e1e0-46d7-9e39-d1c8aceb7212}, !- Handle
  ConductionTransferFunction,             !- Algorithm
  200;                                    !- Surface Temperature Upper Limit {C}

OS:ZoneCapacitanceMultiplier:ResearchSpecial,
  {6bfced16-b16f-47f6-8223-f7e267d75d19}, !- Handle
  ,                                       !- Temperature Capacity Multiplier
  15,                                     !- Humidity Capacity Multiplier
  ;                                       !- Carbon Dioxide Capacity Multiplier

OS:ThermalZone,
  {a844b21e-7311-4576-899f-54514e356a6f}, !- Handle
  living zone,                            !- Name
  ,                                       !- Multiplier
  ,                                       !- Ceiling Height {m}
  ,                                       !- Volume {m3}
  ,                                       !- Floor Area {m2}
  ,                                       !- Zone Inside Convection Algorithm
  ,                                       !- Zone Outside Convection Algorithm
  ,                                       !- Zone Conditioning Equipment List Name
  {c9397693-5c5a-4ee7-a3f6-c8eab6596062}, !- Zone Air Inlet Port List
  {2a22b21a-15be-465b-82d4-d0eb58763943}, !- Zone Air Exhaust Port List
  {874fa9f2-634c-4f45-bbe7-cf73699cf022}, !- Zone Air Node Name
  {2979c0ae-884c-4296-9933-9698dcf124a8}, !- Zone Return Air Node Name
  ,                                       !- Primary Daylighting Control Name
  ,                                       !- Fraction of Zone Controlled by Primary Daylighting Control
  ,                                       !- Secondary Daylighting Control Name
  ,                                       !- Fraction of Zone Controlled by Secondary Daylighting Control
  ,                                       !- Illuminance Map Name
  ,                                       !- Group Rendering Name
  {6ef5bd25-853f-4181-9719-a2b98e9eb97c}, !- Thermostat Name
  No;                                     !- Use Ideal Air Loads

OS:Node,
  {c3593c33-3fb6-498c-a893-6763c9c3ac55}, !- Handle
  Node 1,                                 !- Name
  {874fa9f2-634c-4f45-bbe7-cf73699cf022}, !- Inlet Port
  ;                                       !- Outlet Port

OS:Connection,
  {874fa9f2-634c-4f45-bbe7-cf73699cf022}, !- Handle
  {5e6fde36-8d5b-49e2-b05d-8a620849f810}, !- Name
  {a844b21e-7311-4576-899f-54514e356a6f}, !- Source Object
  11,                                     !- Outlet Port
  {c3593c33-3fb6-498c-a893-6763c9c3ac55}, !- Target Object
  2;                                      !- Inlet Port

OS:PortList,
  {c9397693-5c5a-4ee7-a3f6-c8eab6596062}, !- Handle
  {788427df-2386-42ad-8f99-7771b525f74e}, !- Name
  {a844b21e-7311-4576-899f-54514e356a6f}, !- HVAC Component
  {e77a35f2-d37d-40f1-8399-5129fb210c3d}; !- Port 1

OS:PortList,
  {2a22b21a-15be-465b-82d4-d0eb58763943}, !- Handle
  {7f68e94b-0052-415b-a582-9241fc31a7f4}, !- Name
  {a844b21e-7311-4576-899f-54514e356a6f}; !- HVAC Component

OS:Sizing:Zone,
  {2fe0ea94-dae1-4ece-a6b6-7056fa9523b9}, !- Handle
  {a844b21e-7311-4576-899f-54514e356a6f}, !- Zone or ZoneList Name
  SupplyAirTemperature,                   !- Zone Cooling Design Supply Air Temperature Input Method
  14,                                     !- Zone Cooling Design Supply Air Temperature {C}
  11.11,                                  !- Zone Cooling Design Supply Air Temperature Difference {deltaC}
  SupplyAirTemperature,                   !- Zone Heating Design Supply Air Temperature Input Method
  40,                                     !- Zone Heating Design Supply Air Temperature {C}
  11.11,                                  !- Zone Heating Design Supply Air Temperature Difference {deltaC}
  0.0085,                                 !- Zone Cooling Design Supply Air Humidity Ratio {kg-H2O/kg-air}
  0.008,                                  !- Zone Heating Design Supply Air Humidity Ratio {kg-H2O/kg-air}
  ,                                       !- Zone Heating Sizing Factor
  ,                                       !- Zone Cooling Sizing Factor
  DesignDay,                              !- Cooling Design Air Flow Method
  ,                                       !- Cooling Design Air Flow Rate {m3/s}
  ,                                       !- Cooling Minimum Air Flow per Zone Floor Area {m3/s-m2}
  ,                                       !- Cooling Minimum Air Flow {m3/s}
  ,                                       !- Cooling Minimum Air Flow Fraction
  DesignDay,                              !- Heating Design Air Flow Method
  ,                                       !- Heating Design Air Flow Rate {m3/s}
  ,                                       !- Heating Maximum Air Flow per Zone Floor Area {m3/s-m2}
  ,                                       !- Heating Maximum Air Flow {m3/s}
  ,                                       !- Heating Maximum Air Flow Fraction
  ,                                       !- Design Zone Air Distribution Effectiveness in Cooling Mode
  ,                                       !- Design Zone Air Distribution Effectiveness in Heating Mode
  No,                                     !- Account for Dedicated Outdoor Air System
  NeutralSupplyAir,                       !- Dedicated Outdoor Air System Control Strategy
  autosize,                               !- Dedicated Outdoor Air Low Setpoint Temperature for Design {C}
  autosize;                               !- Dedicated Outdoor Air High Setpoint Temperature for Design {C}

OS:ZoneHVAC:EquipmentList,
  {ff42f113-d136-44d4-9105-c66c530fc8c1}, !- Handle
  Zone HVAC Equipment List 1,             !- Name
  {a844b21e-7311-4576-899f-54514e356a6f}, !- Thermal Zone
  {ca57aae5-9c4a-44a3-ae1d-3407b37b9215}, !- Zone Equipment 1
  1,                                      !- Zone Equipment Cooling Sequence 1
  1;                                      !- Zone Equipment Heating or No-Load Sequence 1

OS:ThermalZone,
  {7d83075b-498f-4d30-a9bc-00291e3da1b3}, !- Handle
  garage zone,                            !- Name
  ,                                       !- Multiplier
  ,                                       !- Ceiling Height {m}
  ,                                       !- Volume {m3}
  ,                                       !- Floor Area {m2}
  ,                                       !- Zone Inside Convection Algorithm
  ,                                       !- Zone Outside Convection Algorithm
  ,                                       !- Zone Conditioning Equipment List Name
  {355aa53f-b754-43fb-a68a-18af72415b7c}, !- Zone Air Inlet Port List
  {5ac53a2d-cedc-4c6b-b704-108e202eee8c}, !- Zone Air Exhaust Port List
  {691bc41c-b375-404a-93e5-586e966a9a88}, !- Zone Air Node Name
  ,                                       !- Zone Return Air Node Name
  ,                                       !- Primary Daylighting Control Name
  ,                                       !- Fraction of Zone Controlled by Primary Daylighting Control
  ,                                       !- Secondary Daylighting Control Name
  ,                                       !- Fraction of Zone Controlled by Secondary Daylighting Control
  ,                                       !- Illuminance Map Name
  ,                                       !- Group Rendering Name
  ,                                       !- Thermostat Name
  No;                                     !- Use Ideal Air Loads

OS:Node,
  {f7676bc3-c744-4ff7-994a-7e38a3391939}, !- Handle
  Node 2,                                 !- Name
  {691bc41c-b375-404a-93e5-586e966a9a88}, !- Inlet Port
  ;                                       !- Outlet Port

OS:Connection,
  {691bc41c-b375-404a-93e5-586e966a9a88}, !- Handle
  {a5f602ca-f6ce-4223-9fd5-951d6acc8f64}, !- Name
  {7d83075b-498f-4d30-a9bc-00291e3da1b3}, !- Source Object
  11,                                     !- Outlet Port
  {f7676bc3-c744-4ff7-994a-7e38a3391939}, !- Target Object
  2;                                      !- Inlet Port

OS:PortList,
  {355aa53f-b754-43fb-a68a-18af72415b7c}, !- Handle
  {ce10d3c1-5afc-405e-a4dd-8b9e32d019ee}, !- Name
  {7d83075b-498f-4d30-a9bc-00291e3da1b3}; !- HVAC Component

OS:PortList,
  {5ac53a2d-cedc-4c6b-b704-108e202eee8c}, !- Handle
  {8ad8a760-f117-42b1-a740-6498691f1d04}, !- Name
  {7d83075b-498f-4d30-a9bc-00291e3da1b3}; !- HVAC Component

OS:Sizing:Zone,
  {7df5cd7c-b254-494c-a42c-6d9cf80f8221}, !- Handle
  {7d83075b-498f-4d30-a9bc-00291e3da1b3}, !- Zone or ZoneList Name
  SupplyAirTemperature,                   !- Zone Cooling Design Supply Air Temperature Input Method
  14,                                     !- Zone Cooling Design Supply Air Temperature {C}
  11.11,                                  !- Zone Cooling Design Supply Air Temperature Difference {deltaC}
  SupplyAirTemperature,                   !- Zone Heating Design Supply Air Temperature Input Method
  40,                                     !- Zone Heating Design Supply Air Temperature {C}
  11.11,                                  !- Zone Heating Design Supply Air Temperature Difference {deltaC}
  0.0085,                                 !- Zone Cooling Design Supply Air Humidity Ratio {kg-H2O/kg-air}
  0.008,                                  !- Zone Heating Design Supply Air Humidity Ratio {kg-H2O/kg-air}
  ,                                       !- Zone Heating Sizing Factor
  ,                                       !- Zone Cooling Sizing Factor
  DesignDay,                              !- Cooling Design Air Flow Method
  ,                                       !- Cooling Design Air Flow Rate {m3/s}
  ,                                       !- Cooling Minimum Air Flow per Zone Floor Area {m3/s-m2}
  ,                                       !- Cooling Minimum Air Flow {m3/s}
  ,                                       !- Cooling Minimum Air Flow Fraction
  DesignDay,                              !- Heating Design Air Flow Method
  ,                                       !- Heating Design Air Flow Rate {m3/s}
  ,                                       !- Heating Maximum Air Flow per Zone Floor Area {m3/s-m2}
  ,                                       !- Heating Maximum Air Flow {m3/s}
  ,                                       !- Heating Maximum Air Flow Fraction
  ,                                       !- Design Zone Air Distribution Effectiveness in Cooling Mode
  ,                                       !- Design Zone Air Distribution Effectiveness in Heating Mode
  No,                                     !- Account for Dedicated Outdoor Air System
  NeutralSupplyAir,                       !- Dedicated Outdoor Air System Control Strategy
  autosize,                               !- Dedicated Outdoor Air Low Setpoint Temperature for Design {C}
  autosize;                               !- Dedicated Outdoor Air High Setpoint Temperature for Design {C}

OS:ZoneHVAC:EquipmentList,
  {9a41522e-5734-4619-b4e0-6341f0283557}, !- Handle
  Zone HVAC Equipment List 2,             !- Name
  {7d83075b-498f-4d30-a9bc-00291e3da1b3}; !- Thermal Zone

OS:Space,
  {1202064a-db01-4bba-aa53-f2b925f2711b}, !- Handle
  garage space,                           !- Name
  ,                                       !- Space Type Name
  ,                                       !- Default Construction Set Name
  ,                                       !- Default Schedule Set Name
  -0,                                     !- Direction of Relative North {deg}
  0,                                      !- X Origin {m}
  0,                                      !- Y Origin {m}
  0,                                      !- Z Origin {m}
  ,                                       !- Building Story Name
  {7d83075b-498f-4d30-a9bc-00291e3da1b3}, !- Thermal Zone Name
  ,                                       !- Part of Total Floor Area
  ,                                       !- Design Specification Outdoor Air Object Name
  {07c77cf3-8fdc-4652-86bc-2ba0242c4856}; !- Building Unit Name

OS:Surface,
  {4e7d08c9-5a1f-433e-8626-f180a9d07a79}, !- Handle
  Surface 1,                              !- Name
  Floor,                                  !- Surface Type
  ,                                       !- Construction Name
  {1202064a-db01-4bba-aa53-f2b925f2711b}, !- Space Name
  Ground,                                 !- Outside Boundary Condition
  ,                                       !- Outside Boundary Condition Object
  NoSun,                                  !- Sun Exposure
  NoWind,                                 !- Wind Exposure
  ,                                       !- View Factor to Ground
  ,                                       !- Number of Vertices
  7.1330661888875, -3.048, 0,             !- X,Y,Z Vertex 1 {m}
  7.1330661888875, 3.048, 0,              !- X,Y,Z Vertex 2 {m}
  10.7906661888875, 3.048, 0,             !- X,Y,Z Vertex 3 {m}
  10.7906661888875, -3.048, 0;            !- X,Y,Z Vertex 4 {m}

OS:Surface,
  {d695a16b-9eeb-4751-be42-b7dd57700a8f}, !- Handle
  Surface 2,                              !- Name
  Wall,                                   !- Surface Type
  ,                                       !- Construction Name
  {1202064a-db01-4bba-aa53-f2b925f2711b}, !- Space Name
  Surface,                                !- Outside Boundary Condition
  {eeb455c2-52cc-4c30-b9c7-4e81b6b1df80}, !- Outside Boundary Condition Object
  NoSun,                                  !- Sun Exposure
  NoWind,                                 !- Wind Exposure
  ,                                       !- View Factor to Ground
  ,                                       !- Number of Vertices
  7.1330661888875, 3.048, 2.4384,         !- X,Y,Z Vertex 1 {m}
  7.1330661888875, 3.048, 0,              !- X,Y,Z Vertex 2 {m}
  7.1330661888875, 0, 0,                  !- X,Y,Z Vertex 3 {m}
  7.1330661888875, 0, 2.4384;             !- X,Y,Z Vertex 4 {m}

OS:Surface,
  {a9a3cea8-eb91-45dc-975e-f2c54b8e2295}, !- Handle
  Surface 3,                              !- Name
  Wall,                                   !- Surface Type
  ,                                       !- Construction Name
  {1202064a-db01-4bba-aa53-f2b925f2711b}, !- Space Name
  Surface,                                !- Outside Boundary Condition
  {3a199dce-9cba-4f67-9572-116f760bc9b1}, !- Outside Boundary Condition Object
  NoSun,                                  !- Sun Exposure
  NoWind,                                 !- Wind Exposure
  ,                                       !- View Factor to Ground
  ,                                       !- Number of Vertices
  10.7906661888875, 3.048, 2.4384,        !- X,Y,Z Vertex 1 {m}
  10.7906661888875, 3.048, 0,             !- X,Y,Z Vertex 2 {m}
  7.1330661888875, 3.048, 0,              !- X,Y,Z Vertex 3 {m}
  7.1330661888875, 3.048, 2.4384;         !- X,Y,Z Vertex 4 {m}

OS:Surface,
  {f31721bb-8018-4997-90ca-35ba7f10ec8f}, !- Handle
  Surface 4,                              !- Name
  Wall,                                   !- Surface Type
  ,                                       !- Construction Name
  {1202064a-db01-4bba-aa53-f2b925f2711b}, !- Space Name
  Outdoors,                               !- Outside Boundary Condition
  ,                                       !- Outside Boundary Condition Object
  SunExposed,                             !- Sun Exposure
  WindExposed,                            !- Wind Exposure
  ,                                       !- View Factor to Ground
  ,                                       !- Number of Vertices
  10.7906661888875, -3.048, 2.4384,       !- X,Y,Z Vertex 1 {m}
  10.7906661888875, -3.048, 0,            !- X,Y,Z Vertex 2 {m}
  10.7906661888875, 3.048, 0,             !- X,Y,Z Vertex 3 {m}
  10.7906661888875, 3.048, 2.4384;        !- X,Y,Z Vertex 4 {m}

OS:Surface,
  {dc34827b-656f-4306-b5ff-c3645db83245}, !- Handle
  Surface 5,                              !- Name
  Wall,                                   !- Surface Type
  ,                                       !- Construction Name
  {1202064a-db01-4bba-aa53-f2b925f2711b}, !- Space Name
  Outdoors,                               !- Outside Boundary Condition
  ,                                       !- Outside Boundary Condition Object
  SunExposed,                             !- Sun Exposure
  WindExposed,                            !- Wind Exposure
  ,                                       !- View Factor to Ground
  ,                                       !- Number of Vertices
  7.1330661888875, -3.048, 2.4384,        !- X,Y,Z Vertex 1 {m}
  7.1330661888875, -3.048, 0,             !- X,Y,Z Vertex 2 {m}
  10.7906661888875, -3.048, 0,            !- X,Y,Z Vertex 3 {m}
  10.7906661888875, -3.048, 2.4384;       !- X,Y,Z Vertex 4 {m}

OS:Surface,
  {dc1fae9c-5668-43db-b10f-1dba35ded567}, !- Handle
  Surface 6,                              !- Name
  RoofCeiling,                            !- Surface Type
  ,                                       !- Construction Name
  {1202064a-db01-4bba-aa53-f2b925f2711b}, !- Space Name
  Surface,                                !- Outside Boundary Condition
  {33e853af-39f7-4a2b-92ac-be4fa4e9c56a}, !- Outside Boundary Condition Object
  NoSun,                                  !- Sun Exposure
  NoWind,                                 !- Wind Exposure
  ,                                       !- View Factor to Ground
  ,                                       !- Number of Vertices
  10.7906661888875, -3.048, 2.4384,       !- X,Y,Z Vertex 1 {m}
  10.7906661888875, 3.048, 2.4384,        !- X,Y,Z Vertex 2 {m}
  7.1330661888875, 3.048, 2.4384,         !- X,Y,Z Vertex 3 {m}
  7.1330661888875, 0, 2.4384,             !- X,Y,Z Vertex 4 {m}
  7.1330661888875, -3.048, 2.4384;        !- X,Y,Z Vertex 5 {m}

OS:Space,
  {a9b874f7-23a7-4261-9669-55b71488a339}, !- Handle
  living space,                           !- Name
  ,                                       !- Space Type Name
  ,                                       !- Default Construction Set Name
  ,                                       !- Default Schedule Set Name
  -0,                                     !- Direction of Relative North {deg}
  0,                                      !- X Origin {m}
  0,                                      !- Y Origin {m}
  0,                                      !- Z Origin {m}
  ,                                       !- Building Story Name
  {a844b21e-7311-4576-899f-54514e356a6f}, !- Thermal Zone Name
  ,                                       !- Part of Total Floor Area
  ,                                       !- Design Specification Outdoor Air Object Name
  {07c77cf3-8fdc-4652-86bc-2ba0242c4856}; !- Building Unit Name

OS:Surface,
  {9c860a49-b75c-43b2-9ced-a4fe8f55b2b4}, !- Handle
  Surface 7,                              !- Name
  Floor,                                  !- Surface Type
  ,                                       !- Construction Name
  {a9b874f7-23a7-4261-9669-55b71488a339}, !- Space Name
  Ground,                                 !- Outside Boundary Condition
  ,                                       !- Outside Boundary Condition Object
  NoSun,                                  !- Sun Exposure
  NoWind,                                 !- Wind Exposure
  ,                                       !- View Factor to Ground
  ,                                       !- Number of Vertices
  0, 0, 0,                                !- X,Y,Z Vertex 1 {m}
  0, 5.39533309444375, 0,                 !- X,Y,Z Vertex 2 {m}
  10.7906661888875, 5.39533309444375, 0,  !- X,Y,Z Vertex 3 {m}
  10.7906661888875, 3.048, 0,             !- X,Y,Z Vertex 4 {m}
  7.1330661888875, 3.048, 0,              !- X,Y,Z Vertex 5 {m}
  7.1330661888875, 0, 0;                  !- X,Y,Z Vertex 6 {m}

OS:Surface,
  {460519c3-0b66-43a5-b905-3f411389c62b}, !- Handle
  Surface 8,                              !- Name
  Wall,                                   !- Surface Type
  ,                                       !- Construction Name
  {a9b874f7-23a7-4261-9669-55b71488a339}, !- Space Name
  Outdoors,                               !- Outside Boundary Condition
  ,                                       !- Outside Boundary Condition Object
  SunExposed,                             !- Sun Exposure
  WindExposed,                            !- Wind Exposure
  ,                                       !- View Factor to Ground
  ,                                       !- Number of Vertices
  0, 5.39533309444375, 2.4384,            !- X,Y,Z Vertex 1 {m}
  0, 5.39533309444375, 0,                 !- X,Y,Z Vertex 2 {m}
  0, 0, 0,                                !- X,Y,Z Vertex 3 {m}
  0, 0, 2.4384;                           !- X,Y,Z Vertex 4 {m}

OS:Surface,
  {b20e2297-113b-41c8-a7d9-1a6126e2dc97}, !- Handle
  Surface 9,                              !- Name
  Wall,                                   !- Surface Type
  ,                                       !- Construction Name
  {a9b874f7-23a7-4261-9669-55b71488a339}, !- Space Name
  Outdoors,                               !- Outside Boundary Condition
  ,                                       !- Outside Boundary Condition Object
  SunExposed,                             !- Sun Exposure
  WindExposed,                            !- Wind Exposure
  ,                                       !- View Factor to Ground
  ,                                       !- Number of Vertices
  10.7906661888875, 5.39533309444375, 2.4384, !- X,Y,Z Vertex 1 {m}
  10.7906661888875, 5.39533309444375, 0,  !- X,Y,Z Vertex 2 {m}
  0, 5.39533309444375, 0,                 !- X,Y,Z Vertex 3 {m}
  0, 5.39533309444375, 2.4384;            !- X,Y,Z Vertex 4 {m}

OS:Surface,
  {a1cabc74-8666-4d1f-af91-68ae02a2d1fe}, !- Handle
  Surface 10,                             !- Name
  Wall,                                   !- Surface Type
  ,                                       !- Construction Name
  {a9b874f7-23a7-4261-9669-55b71488a339}, !- Space Name
  Outdoors,                               !- Outside Boundary Condition
  ,                                       !- Outside Boundary Condition Object
  SunExposed,                             !- Sun Exposure
  WindExposed,                            !- Wind Exposure
  ,                                       !- View Factor to Ground
  ,                                       !- Number of Vertices
  10.7906661888875, 3.048, 2.4384,        !- X,Y,Z Vertex 1 {m}
  10.7906661888875, 3.048, 0,             !- X,Y,Z Vertex 2 {m}
  10.7906661888875, 5.39533309444375, 0,  !- X,Y,Z Vertex 3 {m}
  10.7906661888875, 5.39533309444375, 2.4384; !- X,Y,Z Vertex 4 {m}

OS:Surface,
  {3a199dce-9cba-4f67-9572-116f760bc9b1}, !- Handle
  Surface 11,                             !- Name
  Wall,                                   !- Surface Type
  ,                                       !- Construction Name
  {a9b874f7-23a7-4261-9669-55b71488a339}, !- Space Name
  Surface,                                !- Outside Boundary Condition
  {a9a3cea8-eb91-45dc-975e-f2c54b8e2295}, !- Outside Boundary Condition Object
  NoSun,                                  !- Sun Exposure
  NoWind,                                 !- Wind Exposure
  ,                                       !- View Factor to Ground
  ,                                       !- Number of Vertices
  7.1330661888875, 3.048, 2.4384,         !- X,Y,Z Vertex 1 {m}
  7.1330661888875, 3.048, 0,              !- X,Y,Z Vertex 2 {m}
  10.7906661888875, 3.048, 0,             !- X,Y,Z Vertex 3 {m}
  10.7906661888875, 3.048, 2.4384;        !- X,Y,Z Vertex 4 {m}

OS:Surface,
  {eeb455c2-52cc-4c30-b9c7-4e81b6b1df80}, !- Handle
  Surface 12,                             !- Name
  Wall,                                   !- Surface Type
  ,                                       !- Construction Name
  {a9b874f7-23a7-4261-9669-55b71488a339}, !- Space Name
  Surface,                                !- Outside Boundary Condition
  {d695a16b-9eeb-4751-be42-b7dd57700a8f}, !- Outside Boundary Condition Object
  NoSun,                                  !- Sun Exposure
  NoWind,                                 !- Wind Exposure
  ,                                       !- View Factor to Ground
  ,                                       !- Number of Vertices
  7.1330661888875, 0, 2.4384,             !- X,Y,Z Vertex 1 {m}
  7.1330661888875, 0, 0,                  !- X,Y,Z Vertex 2 {m}
  7.1330661888875, 3.048, 0,              !- X,Y,Z Vertex 3 {m}
  7.1330661888875, 3.048, 2.4384;         !- X,Y,Z Vertex 4 {m}

OS:Surface,
  {7a960c77-5784-464b-9c48-632911869ff1}, !- Handle
  Surface 13,                             !- Name
  Wall,                                   !- Surface Type
  ,                                       !- Construction Name
  {a9b874f7-23a7-4261-9669-55b71488a339}, !- Space Name
  Outdoors,                               !- Outside Boundary Condition
  ,                                       !- Outside Boundary Condition Object
  SunExposed,                             !- Sun Exposure
  WindExposed,                            !- Wind Exposure
  ,                                       !- View Factor to Ground
  ,                                       !- Number of Vertices
  0, 0, 2.4384,                           !- X,Y,Z Vertex 1 {m}
  0, 0, 0,                                !- X,Y,Z Vertex 2 {m}
  7.1330661888875, 0, 0,                  !- X,Y,Z Vertex 3 {m}
  7.1330661888875, 0, 2.4384;             !- X,Y,Z Vertex 4 {m}

OS:Surface,
  {e52ac5b7-75e7-4d12-a53f-d842ee1221f1}, !- Handle
  Surface 14,                             !- Name
  RoofCeiling,                            !- Surface Type
  ,                                       !- Construction Name
  {a9b874f7-23a7-4261-9669-55b71488a339}, !- Space Name
  Surface,                                !- Outside Boundary Condition
  {0ddeb558-dee5-4e98-baae-ad10618f7896}, !- Outside Boundary Condition Object
  NoSun,                                  !- Sun Exposure
  NoWind,                                 !- Wind Exposure
  ,                                       !- View Factor to Ground
  ,                                       !- Number of Vertices
  7.1330661888875, 0, 2.4384,             !- X,Y,Z Vertex 1 {m}
  7.1330661888875, 3.048, 2.4384,         !- X,Y,Z Vertex 2 {m}
  10.7906661888875, 3.048, 2.4384,        !- X,Y,Z Vertex 3 {m}
  10.7906661888875, 5.39533309444375, 2.4384, !- X,Y,Z Vertex 4 {m}
  0, 5.39533309444375, 2.4384,            !- X,Y,Z Vertex 5 {m}
  0, 0, 2.4384;                           !- X,Y,Z Vertex 6 {m}

OS:Space,
  {7d399c07-3d89-45df-aaf6-0214b570ad89}, !- Handle
  living space|story 2,                   !- Name