!- NOTE: Auto-generated from /test/osw_files/SFD_2000sqft_2story_SL_GRG_FR_3Beds_2Baths_Denver_Furnace_CentralAC.osw

OS:Version,
  {f69f4ab3-ea0f-4311-ade3-0fa7d3ab8ca4}, !- Handle
  2.2.1;                                  !- Version Identifier

OS:Building,
  {bf305633-c5a1-4881-9edf-ca5e1a8e1274}, !- Handle
  Building,                               !- Name
  ,                                       !- Building Sector Type
  ,                                       !- North Axis {deg}
  ,                                       !- Nominal Floor to Floor Height {m}
  ,                                       !- Space Type Name
  ,                                       !- Default Construction Set Name
  ,                                       !- Default Schedule Set Name
  3,                                      !- Standards Number of Stories
  3,                                      !- Standards Number of Above Ground Stories
  singlefamilydetached,                   !- Standards Building Type
  1;                                      !- Standards Number of Living Units

OS:YearDescription,
  {513d8dda-86cb-442a-b01c-1f7f0e0ac70e}; !- Handle

OS:SimulationControl,
  {2c487a4c-bac9-4ac5-b669-1e49d9da7c2b}, !- Handle
  ,                                       !- Do Zone Sizing Calculation
  ,                                       !- Do System Sizing Calculation
  ,                                       !- Do Plant Sizing Calculation
  No,                                     !- Run Simulation for Sizing Periods
  ;                                       !- Run Simulation for Weather File Run Periods

OS:Timestep,
  {4ebc9f1e-4707-402e-9844-67eb1ffbd522}, !- Handle
  6;                                      !- Number of Timesteps per Hour

OS:RunPeriod,
  {28df894d-6af9-4fb8-8f56-df1753344aa3}, !- Handle
  Run Period,                             !- Name
  1,                                      !- Begin Month
  1,                                      !- Begin Day of Month
  12,                                     !- End Month
  31,                                     !- End Day of Month
  ,                                       !- Use Weather File Holidays and Special Days
  ,                                       !- Use Weather File Daylight Saving Period
  ,                                       !- Apply Weekend Holiday Rule
  ,                                       !- Use Weather File Rain Indicators
  ,                                       !- Use Weather File Snow Indicators
  ;                                       !- Number of Times Runperiod to be Repeated

OS:Sizing:Parameters,
  {dde5af6f-7923-4600-a28a-7556673a0266}, !- Handle
  1.0,                                    !- Heating Sizing Factor
  1.0;                                    !- Cooling Sizing Factor

OS:ShadowCalculation,
  {ca758bea-4416-4626-9bba-3d8795c79bd6}, !- Handle
  20,                                     !- Calculation Frequency
  200;                                    !- Maximum Figures in Shadow Overlap Calculations

OS:SurfaceConvectionAlgorithm:Inside,
  {aaabfc36-718a-4ab0-b622-f186ebb45230}, !- Handle
  TARP;                                   !- Algorithm

OS:SurfaceConvectionAlgorithm:Outside,
  {9a0a9f6f-4bbd-4b12-a121-9492a1fcd7d6}, !- Handle
  DOE-2;                                  !- Algorithm

OS:HeatBalanceAlgorithm,
  {9d93e563-e1e0-46d7-9e39-d1c8aceb7212}, !- Handle
  ConductionTransferFunction,             !- Algorithm
  200;                                    !- Surface Temperature Upper Limit {C}

OS:ZoneCapacitanceMultiplier:ResearchSpecial,
  {6bfced16-b16f-47f6-8223-f7e267d75d19}, !- Handle
  ,                                       !- Temperature Capacity Multiplier
  15,                                     !- Humidity Capacity Multiplier
  ;                                       !- Carbon Dioxide Capacity Multiplier

OS:ThermalZone,
  {aadf8317-d0a1-4c34-85cc-a0a90380eba2}, !- Handle
  living zone,                            !- Name
  ,                                       !- Multiplier
  ,                                       !- Ceiling Height {m}
  ,                                       !- Volume {m3}
  ,                                       !- Floor Area {m2}
  ,                                       !- Zone Inside Convection Algorithm
  ,                                       !- Zone Outside Convection Algorithm
  ,                                       !- Zone Conditioning Equipment List Name
  {1e6d4823-f118-4fa5-a7eb-2c620d16b0c1}, !- Zone Air Inlet Port List
  {ce179919-39b1-48ad-9942-82ed56879d42}, !- Zone Air Exhaust Port List
  {15135b3c-f4d0-4e34-907c-81466fecf299}, !- Zone Air Node Name
  {1b21edbc-d6c6-4cb8-85ba-9cb2291135a1}, !- Zone Return Air Node Name
  ,                                       !- Primary Daylighting Control Name
  ,                                       !- Fraction of Zone Controlled by Primary Daylighting Control
  ,                                       !- Secondary Daylighting Control Name
  ,                                       !- Fraction of Zone Controlled by Secondary Daylighting Control
  ,                                       !- Illuminance Map Name
  ,                                       !- Group Rendering Name
  {421ef869-0307-462d-a4d0-3efd4e01f417}, !- Thermostat Name
  No;                                     !- Use Ideal Air Loads

OS:Node,
  {e9875330-3a2f-48bb-a814-e39735fe0317}, !- Handle
  Node 1,                                 !- Name
  {15135b3c-f4d0-4e34-907c-81466fecf299}, !- Inlet Port
  ;                                       !- Outlet Port

OS:Connection,
  {15135b3c-f4d0-4e34-907c-81466fecf299}, !- Handle
  {e00a50cd-01cf-4538-9134-2ece9bc7aecd}, !- Name
  {aadf8317-d0a1-4c34-85cc-a0a90380eba2}, !- Source Object
  11,                                     !- Outlet Port
  {e9875330-3a2f-48bb-a814-e39735fe0317}, !- Target Object
  2;                                      !- Inlet Port

OS:PortList,
  {1e6d4823-f118-4fa5-a7eb-2c620d16b0c1}, !- Handle
  {53b99d0d-7c5b-4f43-8086-34f9179e94b9}, !- Name
  {aadf8317-d0a1-4c34-85cc-a0a90380eba2}, !- HVAC Component
  {676c89b3-1f86-4cd1-991b-b07d35533d09}; !- Port 1

OS:PortList,
  {ce179919-39b1-48ad-9942-82ed56879d42}, !- Handle
  {fd757487-120e-4cca-b9be-3f933b9553f8}, !- Name
  {aadf8317-d0a1-4c34-85cc-a0a90380eba2}; !- HVAC Component

OS:Sizing:Zone,
  {52d5d808-6d09-42a8-8a17-dc7b3621fcee}, !- Handle
  {aadf8317-d0a1-4c34-85cc-a0a90380eba2}, !- Zone or ZoneList Name
  SupplyAirTemperature,                   !- Zone Cooling Design Supply Air Temperature Input Method
  14,                                     !- Zone Cooling Design Supply Air Temperature {C}
  11.11,                                  !- Zone Cooling Design Supply Air Temperature Difference {deltaC}
  SupplyAirTemperature,                   !- Zone Heating Design Supply Air Temperature Input Method
  40,                                     !- Zone Heating Design Supply Air Temperature {C}
  11.11,                                  !- Zone Heating Design Supply Air Temperature Difference {deltaC}
  0.0085,                                 !- Zone Cooling Design Supply Air Humidity Ratio {kg-H2O/kg-air}
  0.008,                                  !- Zone Heating Design Supply Air Humidity Ratio {kg-H2O/kg-air}
  ,                                       !- Zone Heating Sizing Factor
  ,                                       !- Zone Cooling Sizing Factor
  DesignDay,                              !- Cooling Design Air Flow Method
  ,                                       !- Cooling Design Air Flow Rate {m3/s}
  ,                                       !- Cooling Minimum Air Flow per Zone Floor Area {m3/s-m2}
  ,                                       !- Cooling Minimum Air Flow {m3/s}
  ,                                       !- Cooling Minimum Air Flow Fraction
  DesignDay,                              !- Heating Design Air Flow Method
  ,                                       !- Heating Design Air Flow Rate {m3/s}
  ,                                       !- Heating Maximum Air Flow per Zone Floor Area {m3/s-m2}
  ,                                       !- Heating Maximum Air Flow {m3/s}
  ,                                       !- Heating Maximum Air Flow Fraction
  ,                                       !- Design Zone Air Distribution Effectiveness in Cooling Mode
  ,                                       !- Design Zone Air Distribution Effectiveness in Heating Mode
  No,                                     !- Account for Dedicated Outdoor Air System
  NeutralSupplyAir,                       !- Dedicated Outdoor Air System Control Strategy
  autosize,                               !- Dedicated Outdoor Air Low Setpoint Temperature for Design {C}
  autosize;                               !- Dedicated Outdoor Air High Setpoint Temperature for Design {C}

OS:ZoneHVAC:EquipmentList,
  {5f07f19b-65cd-4dbe-907f-228e80842097}, !- Handle
  Zone HVAC Equipment List 1,             !- Name
  {aadf8317-d0a1-4c34-85cc-a0a90380eba2}, !- Thermal Zone
  {aed60d2f-43fe-4022-818b-ac407b8fce3f}, !- Zone Equipment 1
  1,                                      !- Zone Equipment Cooling Sequence 1
  1;                                      !- Zone Equipment Heating or No-Load Sequence 1

OS:ThermalZone,
  {dd4d6c54-d78a-4a36-85b0-d8e1774c8c07}, !- Handle
  garage zone,                            !- Name
  ,                                       !- Multiplier
  ,                                       !- Ceiling Height {m}
  ,                                       !- Volume {m3}
  ,                                       !- Floor Area {m2}
  ,                                       !- Zone Inside Convection Algorithm
  ,                                       !- Zone Outside Convection Algorithm
  ,                                       !- Zone Conditioning Equipment List Name
  {667394e2-8c71-453c-a754-885e722cf814}, !- Zone Air Inlet Port List
  {82c28c63-723a-4dc5-953d-a2a463f65cf4}, !- Zone Air Exhaust Port List
  {40c16288-93ef-4264-aa43-02fe9ee9e408}, !- Zone Air Node Name
  ,                                       !- Zone Return Air Node Name
  ,                                       !- Primary Daylighting Control Name
  ,                                       !- Fraction of Zone Controlled by Primary Daylighting Control
  ,                                       !- Secondary Daylighting Control Name
  ,                                       !- Fraction of Zone Controlled by Secondary Daylighting Control
  ,                                       !- Illuminance Map Name
  ,                                       !- Group Rendering Name
  ,                                       !- Thermostat Name
  No;                                     !- Use Ideal Air Loads

OS:Node,
  {28f40c0a-a6ef-489d-b34f-af4945ad45fd}, !- Handle
  Node 2,                                 !- Name
  {40c16288-93ef-4264-aa43-02fe9ee9e408}, !- Inlet Port
  ;                                       !- Outlet Port

OS:Connection,
  {40c16288-93ef-4264-aa43-02fe9ee9e408}, !- Handle
  {c0d7a78e-39f3-4fa0-aa53-e49845830555}, !- Name
  {dd4d6c54-d78a-4a36-85b0-d8e1774c8c07}, !- Source Object
  11,                                     !- Outlet Port
  {28f40c0a-a6ef-489d-b34f-af4945ad45fd}, !- Target Object
  2;                                      !- Inlet Port

OS:PortList,
  {667394e2-8c71-453c-a754-885e722cf814}, !- Handle
  {607ea1f1-9c63-474a-a197-9157091deca9}, !- Name
  {dd4d6c54-d78a-4a36-85b0-d8e1774c8c07}; !- HVAC Component

OS:PortList,
  {82c28c63-723a-4dc5-953d-a2a463f65cf4}, !- Handle
  {7a95d275-01d8-41d2-9752-4d6c917e750c}, !- Name
  {dd4d6c54-d78a-4a36-85b0-d8e1774c8c07}; !- HVAC Component

OS:Sizing:Zone,
  {46b6d0dc-efc7-4442-bf2a-2858fdc8350c}, !- Handle
  {dd4d6c54-d78a-4a36-85b0-d8e1774c8c07}, !- Zone or ZoneList Name
  SupplyAirTemperature,                   !- Zone Cooling Design Supply Air Temperature Input Method
  14,                                     !- Zone Cooling Design Supply Air Temperature {C}
  11.11,                                  !- Zone Cooling Design Supply Air Temperature Difference {deltaC}
  SupplyAirTemperature,                   !- Zone Heating Design Supply Air Temperature Input Method
  40,                                     !- Zone Heating Design Supply Air Temperature {C}
  11.11,                                  !- Zone Heating Design Supply Air Temperature Difference {deltaC}
  0.0085,                                 !- Zone Cooling Design Supply Air Humidity Ratio {kg-H2O/kg-air}
  0.008,                                  !- Zone Heating Design Supply Air Humidity Ratio {kg-H2O/kg-air}
  ,                                       !- Zone Heating Sizing Factor
  ,                                       !- Zone Cooling Sizing Factor
  DesignDay,                              !- Cooling Design Air Flow Method
  ,                                       !- Cooling Design Air Flow Rate {m3/s}
  ,                                       !- Cooling Minimum Air Flow per Zone Floor Area {m3/s-m2}
  ,                                       !- Cooling Minimum Air Flow {m3/s}
  ,                                       !- Cooling Minimum Air Flow Fraction
  DesignDay,                              !- Heating Design Air Flow Method
  ,                                       !- Heating Design Air Flow Rate {m3/s}
  ,                                       !- Heating Maximum Air Flow per Zone Floor Area {m3/s-m2}
  ,                                       !- Heating Maximum Air Flow {m3/s}
  ,                                       !- Heating Maximum Air Flow Fraction
  ,                                       !- Design Zone Air Distribution Effectiveness in Cooling Mode
  ,                                       !- Design Zone Air Distribution Effectiveness in Heating Mode
  No,                                     !- Account for Dedicated Outdoor Air System
  NeutralSupplyAir,                       !- Dedicated Outdoor Air System Control Strategy
  autosize,                               !- Dedicated Outdoor Air Low Setpoint Temperature for Design {C}
  autosize;                               !- Dedicated Outdoor Air High Setpoint Temperature for Design {C}

OS:ZoneHVAC:EquipmentList,
  {154f5303-56ca-49ab-a2d8-a25d50cc3a4d}, !- Handle
  Zone HVAC Equipment List 2,             !- Name
  {dd4d6c54-d78a-4a36-85b0-d8e1774c8c07}; !- Thermal Zone

OS:Space,
  {81bd3af7-6af5-4dab-b586-1b366cd510c2}, !- Handle
  garage space,                           !- Name
  ,                                       !- Space Type Name
  ,                                       !- Default Construction Set Name
  ,                                       !- Default Schedule Set Name
  -0,                                     !- Direction of Relative North {deg}
  0,                                      !- X Origin {m}
  0,                                      !- Y Origin {m}
  0,                                      !- Z Origin {m}
  ,                                       !- Building Story Name
  {dd4d6c54-d78a-4a36-85b0-d8e1774c8c07}, !- Thermal Zone Name
  ,                                       !- Part of Total Floor Area
  ,                                       !- Design Specification Outdoor Air Object Name
  {fa7b6848-f194-4281-9157-91834a80231d}; !- Building Unit Name

OS:Surface,
  {fd06d468-e1bb-4fc8-b494-8d9ff4852d53}, !- Handle
  Surface 1,                              !- Name
  Floor,                                  !- Surface Type
  ,                                       !- Construction Name
  {81bd3af7-6af5-4dab-b586-1b366cd510c2}, !- Space Name
  Ground,                                 !- Outside Boundary Condition
  ,                                       !- Outside Boundary Condition Object
  NoSun,                                  !- Sun Exposure
  NoWind,                                 !- Wind Exposure
  ,                                       !- View Factor to Ground
  ,                                       !- Number of Vertices
  7.1330661888875, -3.048, 0,             !- X,Y,Z Vertex 1 {m}
  7.1330661888875, 3.048, 0,              !- X,Y,Z Vertex 2 {m}
  10.7906661888875, 3.048, 0,             !- X,Y,Z Vertex 3 {m}
  10.7906661888875, -3.048, 0;            !- X,Y,Z Vertex 4 {m}

OS:Surface,
  {622fa93d-1722-40c9-a48e-182e579612ce}, !- Handle
  Surface 2,                              !- Name
  Wall,                                   !- Surface Type
  ,                                       !- Construction Name
  {81bd3af7-6af5-4dab-b586-1b366cd510c2}, !- Space Name
  Surface,                                !- Outside Boundary Condition
  {f178f6eb-6698-44f7-bbe1-bda23d9d2fef}, !- Outside Boundary Condition Object
  NoSun,                                  !- Sun Exposure
  NoWind,                                 !- Wind Exposure
  ,                                       !- View Factor to Ground
  ,                                       !- Number of Vertices
  7.1330661888875, 3.048, 2.4384,         !- X,Y,Z Vertex 1 {m}
  7.1330661888875, 3.048, 0,              !- X,Y,Z Vertex 2 {m}
  7.1330661888875, 0, 0,                  !- X,Y,Z Vertex 3 {m}
  7.1330661888875, 0, 2.4384;             !- X,Y,Z Vertex 4 {m}

OS:Surface,
  {692f1baa-d367-4787-a6e7-fb463db3cb27}, !- Handle
  Surface 3,                              !- Name
  Wall,                                   !- Surface Type
  ,                                       !- Construction Name
  {81bd3af7-6af5-4dab-b586-1b366cd510c2}, !- Space Name
  Surface,                                !- Outside Boundary Condition
  {0ad8e6e3-8eb6-4233-9123-9b56b0d741a1}, !- Outside Boundary Condition Object
  NoSun,                                  !- Sun Exposure
  NoWind,                                 !- Wind Exposure
  ,                                       !- View Factor to Ground
  ,                                       !- Number of Vertices
  10.7906661888875, 3.048, 2.4384,        !- X,Y,Z Vertex 1 {m}
  10.7906661888875, 3.048, 0,             !- X,Y,Z Vertex 2 {m}
  7.1330661888875, 3.048, 0,              !- X,Y,Z Vertex 3 {m}
  7.1330661888875, 3.048, 2.4384;         !- X,Y,Z Vertex 4 {m}

OS:Surface,
  {d8ee36c5-41ce-45fa-942c-f549eaada60a}, !- Handle
  Surface 4,                              !- Name
  Wall,                                   !- Surface Type
  ,                                       !- Construction Name
  {81bd3af7-6af5-4dab-b586-1b366cd510c2}, !- Space Name
  Outdoors,                               !- Outside Boundary Condition
  ,                                       !- Outside Boundary Condition Object
  SunExposed,                             !- Sun Exposure
  WindExposed,                            !- Wind Exposure
  ,                                       !- View Factor to Ground
  ,                                       !- Number of Vertices
  10.7906661888875, -3.048, 2.4384,       !- X,Y,Z Vertex 1 {m}
  10.7906661888875, -3.048, 0,            !- X,Y,Z Vertex 2 {m}
  10.7906661888875, 3.048, 0,             !- X,Y,Z Vertex 3 {m}
  10.7906661888875, 3.048, 2.4384;        !- X,Y,Z Vertex 4 {m}

OS:Surface,
  {6b02d481-366c-4b6a-b4ab-9e001dcf640a}, !- Handle
  Surface 5,                              !- Name
  Wall,                                   !- Surface Type
  ,                                       !- Construction Name
  {81bd3af7-6af5-4dab-b586-1b366cd510c2}, !- Space Name
  Outdoors,                               !- Outside Boundary Condition
  ,                                       !- Outside Boundary Condition Object
  SunExposed,                             !- Sun Exposure
  WindExposed,                            !- Wind Exposure
  ,                                       !- View Factor to Ground
  ,                                       !- Number of Vertices
  7.1330661888875, -3.048, 2.4384,        !- X,Y,Z Vertex 1 {m}
  7.1330661888875, -3.048, 0,             !- X,Y,Z Vertex 2 {m}
  10.7906661888875, -3.048, 0,            !- X,Y,Z Vertex 3 {m}
  10.7906661888875, -3.048, 2.4384;       !- X,Y,Z Vertex 4 {m}

OS:Surface,
  {df0d9cbf-7883-4bf4-b794-87f7b565d34e}, !- Handle
  Surface 6,                              !- Name
  RoofCeiling,                            !- Surface Type
  ,                                       !- Construction Name
  {81bd3af7-6af5-4dab-b586-1b366cd510c2}, !- Space Name
  Surface,                                !- Outside Boundary Condition
  {0f6349ed-38d5-490a-ad08-f66e42d84860}, !- Outside Boundary Condition Object
  NoSun,                                  !- Sun Exposure
  NoWind,                                 !- Wind Exposure
  ,                                       !- View Factor to Ground
  ,                                       !- Number of Vertices
  10.7906661888875, -3.048, 2.4384,       !- X,Y,Z Vertex 1 {m}
  10.7906661888875, 3.048, 2.4384,        !- X,Y,Z Vertex 2 {m}
  7.1330661888875, 3.048, 2.4384,         !- X,Y,Z Vertex 3 {m}
  7.1330661888875, -3.048, 2.4384;        !- X,Y,Z Vertex 4 {m}

OS:Space,
  {cf3b44b2-d006-4ae1-91a7-0803fc23527d}, !- Handle
  living space,                           !- Name
  ,                                       !- Space Type Name
  ,                                       !- Default Construction Set Name
  ,                                       !- Default Schedule Set Name
  -0,                                     !- Direction of Relative North {deg}
  0,                                      !- X Origin {m}
  0,                                      !- Y Origin {m}
  0,                                      !- Z Origin {m}
  ,                                       !- Building Story Name
  {aadf8317-d0a1-4c34-85cc-a0a90380eba2}, !- Thermal Zone Name
  ,                                       !- Part of Total Floor Area
  ,                                       !- Design Specification Outdoor Air Object Name
  {fa7b6848-f194-4281-9157-91834a80231d}; !- Building Unit Name

OS:Surface,
  {b1afa24d-73a1-4e24-8054-d8187175cca6}, !- Handle
  Surface 7,                              !- Name
  Floor,                                  !- Surface Type
  ,                                       !- Construction Name
  {cf3b44b2-d006-4ae1-91a7-0803fc23527d}, !- Space Name
  Ground,                                 !- Outside Boundary Condition
  ,                                       !- Outside Boundary Condition Object
  NoSun,                                  !- Sun Exposure
  NoWind,                                 !- Wind Exposure
  ,                                       !- View Factor to Ground
  ,                                       !- Number of Vertices
  0, 0, 0,                                !- X,Y,Z Vertex 1 {m}
  0, 5.39533309444375, 0,                 !- X,Y,Z Vertex 2 {m}
  10.7906661888875, 5.39533309444375, 0,  !- X,Y,Z Vertex 3 {m}
  10.7906661888875, 3.048, 0,             !- X,Y,Z Vertex 4 {m}
  7.1330661888875, 3.048, 0,              !- X,Y,Z Vertex 5 {m}
  7.1330661888875, 0, 0;                  !- X,Y,Z Vertex 6 {m}

OS:Surface,
  {5eaa7484-d323-4209-8bfd-e30a5536afad}, !- Handle
  Surface 8,                              !- Name
  Wall,                                   !- Surface Type
  ,                                       !- Construction Name
  {cf3b44b2-d006-4ae1-91a7-0803fc23527d}, !- Space Name
  Outdoors,                               !- Outside Boundary Condition
  ,                                       !- Outside Boundary Condition Object
  SunExposed,                             !- Sun Exposure
  WindExposed,                            !- Wind Exposure
  ,                                       !- View Factor to Ground
  ,                                       !- Number of Vertices
  0, 5.39533309444375, 2.4384,            !- X,Y,Z Vertex 1 {m}
  0, 5.39533309444375, 0,                 !- X,Y,Z Vertex 2 {m}
  0, 0, 0,                                !- X,Y,Z Vertex 3 {m}
  0, 0, 2.4384;                           !- X,Y,Z Vertex 4 {m}

OS:Surface,
  {3dad2bd7-dbb2-4680-9551-11d31189b7cf}, !- Handle
  Surface 9,                              !- Name
  Wall,                                   !- Surface Type
  ,                                       !- Construction Name
  {cf3b44b2-d006-4ae1-91a7-0803fc23527d}, !- Space Name
  Outdoors,                               !- Outside Boundary Condition
  ,                                       !- Outside Boundary Condition Object
  SunExposed,                             !- Sun Exposure
  WindExposed,                            !- Wind Exposure
  ,                                       !- View Factor to Ground
  ,                                       !- Number of Vertices
  10.7906661888875, 5.39533309444375, 2.4384, !- X,Y,Z Vertex 1 {m}
  10.7906661888875, 5.39533309444375, 0,  !- X,Y,Z Vertex 2 {m}
  0, 5.39533309444375, 0,                 !- X,Y,Z Vertex 3 {m}
  0, 5.39533309444375, 2.4384;            !- X,Y,Z Vertex 4 {m}

OS:Surface,
  {32c42b4a-190e-4e0d-b86f-f221fed552ed}, !- Handle
  Surface 10,                             !- Name
  Wall,                                   !- Surface Type
  ,                                       !- Construction Name
  {cf3b44b2-d006-4ae1-91a7-0803fc23527d}, !- Space Name
  Outdoors,                               !- Outside Boundary Condition
  ,                                       !- Outside Boundary Condition Object
  SunExposed,                             !- Sun Exposure
  WindExposed,                            !- Wind Exposure
  ,                                       !- View Factor to Ground
  ,                                       !- Number of Vertices
  10.7906661888875, 3.048, 2.4384,        !- X,Y,Z Vertex 1 {m}
  10.7906661888875, 3.048, 0,             !- X,Y,Z Vertex 2 {m}
  10.7906661888875, 5.39533309444375, 0,  !- X,Y,Z Vertex 3 {m}
  10.7906661888875, 5.39533309444375, 2.4384; !- X,Y,Z Vertex 4 {m}

OS:Surface,
  {0ad8e6e3-8eb6-4233-9123-9b56b0d741a1}, !- Handle
  Surface 11,                             !- Name
  Wall,                                   !- Surface Type
  ,                                       !- Construction Name
  {cf3b44b2-d006-4ae1-91a7-0803fc23527d}, !- Space Name
  Surface,                                !- Outside Boundary Condition
  {692f1baa-d367-4787-a6e7-fb463db3cb27}, !- Outside Boundary Condition Object
  NoSun,                                  !- Sun Exposure
  NoWind,                                 !- Wind Exposure
  ,                                       !- View Factor to Ground
  ,                                       !- Number of Vertices
  7.1330661888875, 3.048, 2.4384,         !- X,Y,Z Vertex 1 {m}
  7.1330661888875, 3.048, 0,              !- X,Y,Z Vertex 2 {m}
  10.7906661888875, 3.048, 0,             !- X,Y,Z Vertex 3 {m}
  10.7906661888875, 3.048, 2.4384;        !- X,Y,Z Vertex 4 {m}

OS:Surface,
  {f178f6eb-6698-44f7-bbe1-bda23d9d2fef}, !- Handle
  Surface 12,                             !- Name
  Wall,                                   !- Surface Type
  ,                                       !- Construction Name
  {cf3b44b2-d006-4ae1-91a7-0803fc23527d}, !- Space Name
  Surface,                                !- Outside Boundary Condition
  {622fa93d-1722-40c9-a48e-182e579612ce}, !- Outside Boundary Condition Object
  NoSun,                                  !- Sun Exposure
  NoWind,                                 !- Wind Exposure
  ,                                       !- View Factor to Ground
  ,                                       !- Number of Vertices
  7.1330661888875, 0, 2.4384,             !- X,Y,Z Vertex 1 {m}
  7.1330661888875, 0, 0,                  !- X,Y,Z Vertex 2 {m}
  7.1330661888875, 3.048, 0,              !- X,Y,Z Vertex 3 {m}
  7.1330661888875, 3.048, 2.4384;         !- X,Y,Z Vertex 4 {m}

OS:Surface,
  {e75894ec-1a83-44b6-9951-61fc8f2f4726}, !- Handle
  Surface 13,                             !- Name
  Wall,                                   !- Surface Type
  ,                                       !- Construction Name
  {cf3b44b2-d006-4ae1-91a7-0803fc23527d}, !- Space Name
  Outdoors,                               !- Outside Boundary Condition
  ,                                       !- Outside Boundary Condition Object
  SunExposed,                             !- Sun Exposure
  WindExposed,                            !- Wind Exposure
  ,                                       !- View Factor to Ground
  ,                                       !- Number of Vertices
  0, 0, 2.4384,                           !- X,Y,Z Vertex 1 {m}
  0, 0, 0,                                !- X,Y,Z Vertex 2 {m}
  7.1330661888875, 0, 0,                  !- X,Y,Z Vertex 3 {m}
  7.1330661888875, 0, 2.4384;             !- X,Y,Z Vertex 4 {m}

OS:Surface,
  {b0cb0e1a-2578-4af1-b149-97fb47f257f7}, !- Handle
  Surface 14,                             !- Name
  RoofCeiling,                            !- Surface Type
  ,                                       !- Construction Name
  {cf3b44b2-d006-4ae1-91a7-0803fc23527d}, !- Space Name
  Surface,                                !- Outside Boundary Condition
  {6d0f451c-c2f6-4a07-a046-1771691c439a}, !- Outside Boundary Condition Object
  NoSun,                                  !- Sun Exposure
  NoWind,                                 !- Wind Exposure
  ,                                       !- View Factor to Ground
  ,                                       !- Number of Vertices
  7.1330661888875, 0, 2.4384,             !- X,Y,Z Vertex 1 {m}
  7.1330661888875, 3.048, 2.4384,         !- X,Y,Z Vertex 2 {m}
  10.7906661888875, 3.048, 2.4384,        !- X,Y,Z Vertex 3 {m}
  10.7906661888875, 5.39533309444375, 2.4384, !- X,Y,Z Vertex 4 {m}
  0, 5.39533309444375, 2.4384,            !- X,Y,Z Vertex 5 {m}
  0, 0, 2.4384;                           !- X,Y,Z Vertex 6 {m}

OS:Space,
  {18f2722a-23b7-4255-ad91-40e3b5c4e0d8}, !- Handle
  living space|story 2,                   !- Name
  ,                                       !- Space Type Name