!- NOTE: Auto-generated from /test/osw_files/MF_2units_Multizone_2story_SL_UA_GRG_2Bed_2Bath_1Kitchen_Denver_GasWHTank.osw

OS:Version,
  {fc003c06-618b-4051-9b37-6b6f71b12672}, !- Handle
  2.2.0;                                  !- Version Identifier

OS:Building,
  {bf305633-c5a1-4881-9edf-ca5e1a8e1274}, !- Handle
  Building,                               !- Name
  ,                                       !- Building Sector Type
  ,                                       !- North Axis {deg}
  ,                                       !- Nominal Floor to Floor Height {m}
  ,                                       !- Space Type Name
  ,                                       !- Default Construction Set Name
  ,                                       !- Default Schedule Set Name
  ,                                       !- Standards Number of Stories
  2,                                      !- Standards Number of Above Ground Stories
  singlefamilyttached;                    !- Standards Building Type

OS:YearDescription,
  {513d8dda-86cb-442a-b01c-1f7f0e0ac70e}; !- Handle

OS:SimulationControl,
  {2c487a4c-bac9-4ac5-b669-1e49d9da7c2b}, !- Handle
  ,                                       !- Do Zone Sizing Calculation
  ,                                       !- Do System Sizing Calculation
  ,                                       !- Do Plant Sizing Calculation
  No,                                     !- Run Simulation for Sizing Periods
  ;                                       !- Run Simulation for Weather File Run Periods

OS:Timestep,
  {4ebc9f1e-4707-402e-9844-67eb1ffbd522}, !- Handle
  6;                                      !- Number of Timesteps per Hour

OS:RunPeriod,
  {28df894d-6af9-4fb8-8f56-df1753344aa3}, !- Handle
  Run Period,                             !- Name
  1,                                      !- Begin Month
  1,                                      !- Begin Day of Month
  12,                                     !- End Month
  31,                                     !- End Day of Month
  ,                                       !- Use Weather File Holidays and Special Days
  ,                                       !- Use Weather File Daylight Saving Period
  ,                                       !- Apply Weekend Holiday Rule
  ,                                       !- Use Weather File Rain Indicators
  ,                                       !- Use Weather File Snow Indicators
  ;                                       !- Number of Times Runperiod to be Repeated

OS:Sizing:Parameters,
  {dde5af6f-7923-4600-a28a-7556673a0266}, !- Handle
  1.0,                                    !- Heating Sizing Factor
  1.0;                                    !- Cooling Sizing Factor

OS:ShadowCalculation,
  {ca758bea-4416-4626-9bba-3d8795c79bd6}, !- Handle
  20,                                     !- Calculation Frequency
  200;                                    !- Maximum Figures in Shadow Overlap Calculations

OS:SurfaceConvectionAlgorithm:Inside,
  {aaabfc36-718a-4ab0-b622-f186ebb45230}, !- Handle
  TARP;                                   !- Algorithm

OS:SurfaceConvectionAlgorithm:Outside,
  {9a0a9f6f-4bbd-4b12-a121-9492a1fcd7d6}, !- Handle
  DOE-2;                                  !- Algorithm

OS:HeatBalanceAlgorithm,
  {9d93e563-e1e0-46d7-9e39-d1c8aceb7212}, !- Handle
  ConductionTransferFunction,             !- Algorithm
  200;                                    !- Surface Temperature Upper Limit {C}

OS:ZoneCapacitanceMultiplier:ResearchSpecial,
  {6bfced16-b16f-47f6-8223-f7e267d75d19}, !- Handle
  ,                                       !- Temperature Capacity Multiplier
  15,                                     !- Humidity Capacity Multiplier
  ;                                       !- Carbon Dioxide Capacity Multiplier

OS:Space,
  {b2bfe837-9bb7-4b0a-b7ee-e0886b0600ed}, !- Handle
  Space 1 - 11,                           !- Name
  {81c69f6a-5b70-4916-8598-905aa660f627}, !- Space Type Name
  ,                                       !- Default Construction Set Name
  ,                                       !- Default Schedule Set Name
  ,                                       !- Direction of Relative North {deg}
  ,                                       !- X Origin {m}
  ,                                       !- Y Origin {m}
  ,                                       !- Z Origin {m}
  ,                                       !- Building Story Name
  {42763a19-11a3-4e99-87f7-7e13496c010d}, !- Thermal Zone Name
  ,                                       !- Part of Total Floor Area
  ,                                       !- Design Specification Outdoor Air Object Name
  {05bed556-79c5-4924-9c2a-88db0f756833}; !- Building Unit Name

OS:SpaceType,
  {81c69f6a-5b70-4916-8598-905aa660f627}, !- Handle
  116,                                    !- Name
  ,                                       !- Default Construction Set Name
  ,                                       !- Default Schedule Set Name
  ,                                       !- Group Rendering Name
  ,                                       !- Design Specification Outdoor Air Object Name
  ,                                       !- Standards Building Type
  kitchen;                                !- Standards Space Type

OS:Surface,
  {ce4c4830-4852-4496-ab02-0f7b7e97e2a0}, !- Handle
   63,                                    !- Name
  Floor,                                  !- Surface Type
  ,                                       !- Construction Name
  {b2bfe837-9bb7-4b0a-b7ee-e0886b0600ed}, !- Space Name
  Ground,                                 !- Outside Boundary Condition
  ,                                       !- Outside Boundary Condition Object
  NoSun,                                  !- Sun Exposure
  NoWind,                                 !- Wind Exposure
  ,                                       !- View Factor to Ground
  ,                                       !- Number of Vertices
  86, 58, 0,                              !- X,Y,Z Vertex 1 {m}
  97.91062602368, 58, 0,                  !- X,Y,Z Vertex 2 {m}
  98, 58, 0,                              !- X,Y,Z Vertex 3 {m}
  98, 36, 0,                              !- X,Y,Z Vertex 4 {m}
  97.91062602368, 36, 0,                  !- X,Y,Z Vertex 5 {m}
  86, 36, 0;                              !- X,Y,Z Vertex 6 {m}

OS:Surface,
  {32fc8b25-b0df-43d0-9c19-cca5ba0f7a3f}, !- Handle
   64,                                    !- Name
  RoofCeiling,                            !- Surface Type
  ,                                       !- Construction Name
  {b2bfe837-9bb7-4b0a-b7ee-e0886b0600ed}, !- Space Name
  Outdoors,                               !- Outside Boundary Condition
  ,                                       !- Outside Boundary Condition Object
  SunExposed,                             !- Sun Exposure
  WindExposed,                            !- Wind Exposure
  ,                                       !- View Factor to Ground
  ,                                       !- Number of Vertices
  98, 36, 3,                              !- X,Y,Z Vertex 1 {m}
  98, 58, 3,                              !- X,Y,Z Vertex 2 {m}
  86, 58, 3,                              !- X,Y,Z Vertex 3 {m}
  86, 36, 3;                              !- X,Y,Z Vertex 4 {m}

OS:Surface,
  {cbcf4fe8-f778-4cb7-a72a-b59560cc08e8}, !- Handle
   65,                                    !- Name
  Wall,                                   !- Surface Type
  ,                                       !- Construction Name
  {b2bfe837-9bb7-4b0a-b7ee-e0886b0600ed}, !- Space Name
  Outdoors,                               !- Outside Boundary Condition
  ,                                       !- Outside Boundary Condition Object
  SunExposed,                             !- Sun Exposure
  WindExposed,                            !- Wind Exposure
  ,                                       !- View Factor to Ground
  ,                                       !- Number of Vertices
  97.91062602368, 58, 3,                  !- X,Y,Z Vertex 1 {m}
  97.91062602368, 58, 0,                  !- X,Y,Z Vertex 2 {m}
  86, 58, 0,                              !- X,Y,Z Vertex 3 {m}
  86, 58, 3;                              !- X,Y,Z Vertex 4 {m}

OS:Surface,
  {f8a79089-ab6f-453f-812e-60ff89cf5c1b}, !- Handle
   66,                                    !- Name
  Wall,                                   !- Surface Type
  ,                                       !- Construction Name
  {b2bfe837-9bb7-4b0a-b7ee-e0886b0600ed}, !- Space Name
  Outdoors,                               !- Outside Boundary Condition
  ,                                       !- Outside Boundary Condition Object
  SunExposed,                             !- Sun Exposure
  WindExposed,                            !- Wind Exposure
  ,                                       !- View Factor to Ground
  ,                                       !- Number of Vertices
  98, 58, 3,                              !- X,Y,Z Vertex 1 {m}
  98, 58, 0,                              !- X,Y,Z Vertex 2 {m}
  97.91062602368, 58, 0,                  !- X,Y,Z Vertex 3 {m}
  97.91062602368, 58, 3;                  !- X,Y,Z Vertex 4 {m}

OS:Surface,
  {165def95-40d3-4564-9e46-3e11220d53dd}, !- Handle
   67,                                    !- Name
  Wall,                                   !- Surface Type
  ,                                       !- Construction Name
  {b2bfe837-9bb7-4b0a-b7ee-e0886b0600ed}, !- Space Name
  Outdoors,                               !- Outside Boundary Condition
  ,                                       !- Outside Boundary Condition Object
  SunExposed,                             !- Sun Exposure
  WindExposed,                            !- Wind Exposure
  ,                                       !- View Factor to Ground
  ,                                       !- Number of Vertices
  98, 36, 3,                              !- X,Y,Z Vertex 1 {m}
  98, 36, 0,                              !- X,Y,Z Vertex 2 {m}
  98, 58, 0,                              !- X,Y,Z Vertex 3 {m}
  98, 58, 3;                              !- X,Y,Z Vertex 4 {m}

OS:Surface,
  {2f590060-164b-4a53-9b3a-12593e32f290}, !- Handle
   68,                                    !- Name
  Wall,                                   !- Surface Type
  ,                                       !- Construction Name
  {b2bfe837-9bb7-4b0a-b7ee-e0886b0600ed}, !- Space Name
  Outdoors,                               !- Outside Boundary Condition
  ,                                       !- Outside Boundary Condition Object
  SunExposed,                             !- Sun Exposure
  WindExposed,                            !- Wind Exposure
  ,                                       !- View Factor to Ground
  ,                                       !- Number of Vertices
  97.91062602368, 36, 3,                  !- X,Y,Z Vertex 1 {m}
  97.91062602368, 36, 0,                  !- X,Y,Z Vertex 2 {m}
  98, 36, 0,                              !- X,Y,Z Vertex 3 {m}
  98, 36, 3;                              !- X,Y,Z Vertex 4 {m}

OS:Surface,
  {36096697-38dc-410c-985e-0dca11bae8f6}, !- Handle
   69,                                    !- Name
  Wall,                                   !- Surface Type
  ,                                       !- Construction Name
  {b2bfe837-9bb7-4b0a-b7ee-e0886b0600ed}, !- Space Name
  Outdoors,                               !- Outside Boundary Condition
  ,                                       !- Outside Boundary Condition Object
  SunExposed,                             !- Sun Exposure
  WindExposed,                            !- Wind Exposure
  ,                                       !- View Factor to Ground
  ,                                       !- Number of Vertices
  86, 36, 3,                              !- X,Y,Z Vertex 1 {m}
  86, 36, 0,                              !- X,Y,Z Vertex 2 {m}
  97.91062602368, 36, 0,                  !- X,Y,Z Vertex 3 {m}
  97.91062602368, 36, 3;                  !- X,Y,Z Vertex 4 {m}

OS:Surface,
  {056fd9ed-9783-4bae-a9f7-f32208d797bf}, !- Handle
   70,                                    !- Name
  Wall,                                   !- Surface Type
  ,                                       !- Construction Name
  {b2bfe837-9bb7-4b0a-b7ee-e0886b0600ed}, !- Space Name
  Surface,                                !- Outside Boundary Condition
  {ed4218e1-cf69-436c-9c99-358adc21b863}, !- Outside Boundary Condition Object
  NoSun,                                  !- Sun Exposure
  NoWind,                                 !- Wind Exposure
  ,                                       !- View Factor to Ground
  ,                                       !- Number of Vertices
  86, 58, 3,                              !- X,Y,Z Vertex 1 {m}
  86, 58, 0,                              !- X,Y,Z Vertex 2 {m}
  86, 36, 0,                              !- X,Y,Z Vertex 3 {m}
  86, 36, 3;                              !- X,Y,Z Vertex 4 {m}

OS:Space,
  {57b293f0-1ba0-490f-a8c8-c8d2a0686f69}, !- Handle
  Space 2 - 8,                            !- Name
  {08c528f0-834e-41c3-952b-9bda43d7fd83}, !- Space Type Name
  ,                                       !- Default Construction Set Name
  ,                                       !- Default Schedule Set Name
  ,                                       !- Direction of Relative North {deg}
  ,                                       !- X Origin {m}
  ,                                       !- Y Origin {m}
  ,                                       !- Z Origin {m}
  ,                                       !- Building Story Name
  {4435dea8-6dd1-4e94-ae3d-57c6624b6484}, !- Thermal Zone Name
  ,                                       !- Part of Total Floor Area
  ,                                       !- Design Specification Outdoor Air Object Name
  {05bed556-79c5-4924-9c2a-88db0f756833}; !- Building Unit Name

OS:SpaceType,
  {08c528f0-834e-41c3-952b-9bda43d7fd83}, !- Handle
  112,                                    !- Name
  ,                                       !- Default Construction Set Name
  ,                                       !- Default Schedule Set Name
  ,                                       !- Group Rendering Name
  ,                                       !- Design Specification Outdoor Air Object Name
  ,                                       !- Standards Building Type
  living;                                 !- Standards Space Type

OS:Surface,
  {4a791f8c-841a-476f-9248-b7e31eaf4a37}, !- Handle
   106,                                   !- Name
  Floor,                                  !- Surface Type
  ,                                       !- Construction Name
  {57b293f0-1ba0-490f-a8c8-c8d2a0686f69}, !- Space Name
  Ground,                                 !- Outside Boundary Condition
  ,                                       !- Outside Boundary Condition Object
  NoSun,                                  !- Sun Exposure
  NoWind,                                 !- Wind Exposure
  ,                                       !- View Factor to Ground
  ,                                       !- Number of Vertices
  38, 36, 3,                              !- X,Y,Z Vertex 1 {m}
  34, 36, 3,                              !- X,Y,Z Vertex 2 {m}
  34, 58, 3,                              !- X,Y,Z Vertex 3 {m}
  38, 58, 3;                              !- X,Y,Z Vertex 4 {m}

OS:Surface,
  {bf4b1518-e472-42bc-a480-85d7724e78db}, !- Handle
   107,                                   !- Name
  RoofCeiling,                            !- Surface Type
  ,                                       !- Construction Name
  {57b293f0-1ba0-490f-a8c8-c8d2a0686f69}, !- Space Name
  Surface,                                !- Outside Boundary Condition
  {cb8260c3-1377-415e-8776-62785ce3c0c5}, !- Outside Boundary Condition Object
  NoSun,                                  !- Sun Exposure
  NoWind,                                 !- Wind Exposure
  ,                                       !- View Factor to Ground
  ,                                       !- Number of Vertices
  38, 36, 6,                              !- X,Y,Z Vertex 1 {m}
  38, 58, 6,                              !- X,Y,Z Vertex 2 {m}
  34, 58, 6,                              !- X,Y,Z Vertex 3 {m}
  34, 36, 6;                              !- X,Y,Z Vertex 4 {m}

OS:Surface,
  {3d4ad483-fc08-42f4-808e-fb12fe6266eb}, !- Handle
   108,                                   !- Name
  Wall,                                   !- Surface Type
  ,                                       !- Construction Name
  {57b293f0-1ba0-490f-a8c8-c8d2a0686f69}, !- Space Name
  Outdoors,                               !- Outside Boundary Condition
  ,                                       !- Outside Boundary Condition Object
  SunExposed,                             !- Sun Exposure
  WindExposed,                            !- Wind Exposure
  ,                                       !- View Factor to Ground
  ,                                       !- Number of Vertices
  34, 36, 6,                              !- X,Y,Z Vertex 1 {m}
  34, 36, 3,                              !- X,Y,Z Vertex 2 {m}
  38, 36, 3,                              !- X,Y,Z Vertex 3 {m}
  38, 36, 6;                              !- X,Y,Z Vertex 4 {m}

OS:Surface,
  {81f07a2e-ce2f-4f3c-9030-051c882ea8aa}, !- Handle
   109,                                   !- Name
  Wall,                                   !- Surface Type
  ,                                       !- Construction Name
  {57b293f0-1ba0-490f-a8c8-c8d2a0686f69}, !- Space Name
  Surface,                                !- Outside Boundary Condition
  {620a99ba-d490-4cd9-a4a1-cb20a5cc104f}, !- Outside Boundary Condition Object
  NoSun,                                  !- Sun Exposure
  NoWind,                                 !- Wind Exposure
  ,                                       !- View Factor to Ground
  ,                                       !- Number of Vertices
  34, 58, 6,                              !- X,Y,Z Vertex 1 {m}
  34, 58, 3,                              !- X,Y,Z Vertex 2 {m}
  34, 36, 3,                              !- X,Y,Z Vertex 3 {m}
  34, 36, 6;                              !- X,Y,Z Vertex 4 {m}

OS:Surface,
  {6e40e282-f718-4778-8d09-d9c372403fe2}, !- Handle
   110,                                   !- Name
  Wall,                                   !- Surface Type
  ,                                       !- Construction Name
  {57b293f0-1ba0-490f-a8c8-c8d2a0686f69}, !- Space Name
  Outdoors,                               !- Outside Boundary Condition
  ,                                       !- Outside Boundary Condition Object
  SunExposed,                             !- Sun Exposure
  WindExposed,                            !- Wind Exposure
  ,                                       !- View Factor to Ground
  ,                                       !- Number of Vertices
  38, 58, 6,                              !- X,Y,Z Vertex 1 {m}
  38, 58, 3,                              !- X,Y,Z Vertex 2 {m}
  34, 58, 3,                              !- X,Y,Z Vertex 3 {m}
  34, 58, 6;                              !- X,Y,Z Vertex 4 {m}

OS:Surface,
  {eeb06365-d4a3-402b-bc46-83017eb47ec9}, !- Handle
   111,                                   !- Name
  Wall,                                   !- Surface Type
  ,                                       !- Construction Name
  {57b293f0-1ba0-490f-a8c8-c8d2a0686f69}, !- Space Name
  Outdoors,                               !- Outside Boundary Condition
  ,                                       !- Outside Boundary Condition Object
  SunExposed,                             !- Sun Exposure
  WindExposed,                            !- Wind Exposure
  ,                                       !- View Factor to Ground
  ,                                       !- Number of Vertices
  38, 36, 6,                              !- X,Y,Z Vertex 1 {m}
  38, 36, 3,                              !- X,Y,Z Vertex 2 {m}
  38, 58, 3,                              !- X,Y,Z Vertex 3 {m}
  38, 58, 6;                              !- X,Y,Z Vertex 4 {m}

OS:Space,
  {2c9e8b2c-572c-4467-96c7-0ddb99341558}, !- Handle
  Space 2 - 1,                            !- Name
  {08c528f0-834e-41c3-952b-9bda43d7fd83}, !- Space Type Name
  ,                                       !- Default Construction Set Name
  ,                                       !- Default Schedule Set Name
  ,                                       !- Direction of Relative North {deg}
  ,                                       !- X Origin {m}
  ,                                       !- Y Origin {m}
  ,                                       !- Z Origin {m}
  ,                                       !- Building Story Name
  {6d00b5d7-303e-4fdf-b80c-1038c4090d92}, !- Thermal Zone Name
  ,                                       !- Part of Total Floor Area
  ,                                       !- Design Specification Outdoor Air Object Name
  {cd87ad39-ce4c-434b-bec8-944a1232e8a6}; !- Building Unit Name

OS:Surface,
  {26d8c97c-30f1-4446-9041-a2c7e0d21003}, !- Handle
   79,                                    !- Name
  Floor,                                  !- Surface Type
  ,                                       !- Construction Name
  {2c9e8b2c-572c-4467-96c7-0ddb99341558}, !- Space Name
  Ground,                                 !- Outside Boundary Condition
  ,                                       !- Outside Boundary Condition Object
  NoSun,                                  !- Sun Exposure
  NoWind,                                 !- Wind Exposure
  ,                                       !- View Factor to Ground
  ,                                       !- Number of Vertices
  20, 58, 3,                              !- X,Y,Z Vertex 1 {m}
  20, 36, 3,                              !- X,Y,Z Vertex 2 {m}
  6, 36, 3,                               !- X,Y,Z Vertex 3 {m}
  6, 58, 3,                               !- X,Y,Z Vertex 4 {m}
  19.91062602368, 58, 3;                  !- X,Y,Z Vertex 5 {m}

OS:Surface,
  {515d5222-18c6-40eb-9447-e616e6eaa6d8}, !- Handle
   80,                                    !- Name
  RoofCeiling,                            !- Surface Type
  ,                                       !- Construction Name
  {2c9e8b2c-572c-4467-96c7-0ddb99341558}, !- Space Name
  Outdoors,                               !- Outside Boundary Condition
  ,                                       !- Outside Boundary Condition Object
  SunExposed,                             !- Sun Exposure
  WindExposed,                            !- Wind Exposure
  ,                                       !- View Factor to Ground
  ,                                       !- Number of Vertices
  20, 36, 6,                              !- X,Y,Z Vertex 1 {m}
  20, 58, 6,                              !- X,Y,Z Vertex 2 {m}
  -50, 58, 6,                             !- X,Y,Z Vertex 3 {m}
  -50, 36, 6,                             !- X,Y,Z Vertex 4 {m}
  19.91062602368, 36, 6;                  !- X,Y,Z Vertex 5 {m}

OS:Surface,
  {b68edd4a-5e07-4893-9d7d-ec6ffb387359}, !- Handle
   81,                                    !- Name
  Wall,                                   !- Surface Type
  ,                                       !- Construction Name
  {2c9e8b2c-572c-4467-96c7-0ddb99341558}, !- Space Name
  Outdoors,                               !- Outside Boundary Condition
  ,                                       !- Outside Boundary Condition Object
  SunExposed,                             !- Sun Exposure
  WindExposed,                            !- Wind Exposure
  ,                                       !- View Factor to Ground
  ,                                       !- Number of Vertices
  19.91062602368, 36, 6,                  !- X,Y,Z Vertex 1 {m}
  19.91062602368, 36, 3,                  !- X,Y,Z Vertex 2 {m}
  20, 36, 3,                              !- X,Y,Z Vertex 3 {m}
  20, 36, 6;                              !- X,Y,Z Vertex 4 {m}

OS:Surface,
  {f20e90d2-c9ba-474c-94e0-5fb730c95436}, !- Handle
   82,                                    !- Name
  Wall,                                   !- Surface Type
  ,                                       !- Construction Name
  {2c9e8b2c-572c-4467-96c7-0ddb99341558}, !- Space Name
  Outdoors,                               !- Outside Boundary Condition
  ,                                       !- Outside Boundary Condition Object
  SunExposed,                             !- Sun Exposure
  WindExposed,                            !- Wind Exposure
  ,                                       !- View Factor to Ground
  ,                                       !- Number of Vertices
  -50, 36, 6,                             !- X,Y,Z Vertex 1 {m}
  -50, 36, 3,                             !- X,Y,Z Vertex 2 {m}
  19.91062602368, 36, 3,                  !- X,Y,Z Vertex 3 {m}
  19.91062602368, 36, 6;                  !- X,Y,Z Vertex 4 {m}

OS:Surface,
  {ecef3f88-d621-4807-91be-7741af580ca4}, !- Handle
   83,                                    !- Name
  Wall,                                   !- Surface Type
  ,                                       !- Construction Name
  {2c9e8b2c-572c-4467-96c7-0ddb99341558}, !- Space Name
  Surface,                                !- Outside Boundary Condition
  {f8932d63-f857-471c-a73f-b65e3c6873bd}, !- Outside Boundary Condition Object
  NoSun,                                  !- Sun Exposure
  NoWind,                                 !- Wind Exposure
  ,                                       !- View Factor to Ground
  ,                                       !- Number of Vertices
  -50, 58, 6,                             !- X,Y,Z Vertex 1 {m}
  -50, 58, 3,                             !- X,Y,Z Vertex 2 {m}
  -50, 36, 3,                             !- X,Y,Z Vertex 3 {m}
  -50, 36, 6;                             !- X,Y,Z Vertex 4 {m}

OS:Surface,
  {7b6aa863-384c-4cef-bceb-c7fed4814496}, !- Handle
   84,                                    !- Name
  Wall,                                   !- Surface Type
  ,                                       !- Construction Name
  {2c9e8b2c-572c-4467-96c7-0ddb99341558}, !- Space Name
  Outdoors,                               !- Outside Boundary Condition
  ,                                       !- Outside Boundary Condition Object
  SunExposed,                             !- Sun Exposure
  WindExposed,                            !- Wind Exposure
  ,                                       !- View Factor to Ground
  ,                                       !- Number of Vertices
  19.91062602368, 58, 6,                  !- X,Y,Z Vertex 1 {m}
  19.91062602368, 58, 3,                  !- X,Y,Z Vertex 2 {m}
  -50, 58, 3,                             !- X,Y,Z Vertex 3 {m}
  -50, 58, 6;                             !- X,Y,Z Vertex 4 {m}

OS:Surface,
  {511abaf0-a3f3-4c94-973b-167d38a2df2c}, !- Handle
   85,                                    !- Name
  Wall,                                   !- Surface Type
  ,                                       !- Construction Name
  {2c9e8b2c-572c-4467-96c7-0ddb99341558}, !- Space Name
  Outdoors,                               !- Outside Boundary Condition
  ,                                       !- Outside Boundary Condition Object
  SunExposed,                             !- Sun Exposure
  WindExposed,                            !- Wind Exposure
  ,                                       !- View Factor to Ground
  ,                                       !- Number of Vertices
  20, 58, 6,                              !- X,Y,Z Vertex 1 {m}
  20, 58, 3,                              !- X,Y,Z Vertex 2 {m}
  19.91062602368, 58, 3,                  !- X,Y,Z Vertex 3 {m}
  19.91062602368, 58, 6;                  !- X,Y,Z Vertex 4 {m}

OS:Surface,
  {3b027507-51f4-4a0d-a03d-4f562b4eec3e}, !- Handle
   86,                                    !- Name
  Wall,                                   !- Surface Type
  ,                                       !- Construction Name
  {2c9e8b2c-572c-4467-96c7-0ddb99341558}, !- Space Name
  Outdoors,                               !- Outside Boundary Condition
  ,                                       !- Outside Boundary Condition Object
  SunExposed,                             !- Sun Exposure
  WindExposed,                            !- Wind Exposure
  ,                                       !- View Factor to Ground
  ,                                       !- Number of Vertices
  20, 36, 6,                              !- X,Y,Z Vertex 1 {m}
  20, 36, 3,                              !- X,Y,Z Vertex 2 {m}
  20, 58, 3,                              !- X,Y,Z Vertex 3 {m}
  20, 58, 6;                              !- X,Y,Z Vertex 4 {m}

OS:Space,
  {9f1be31c-f320-48cd-a898-8922758abb95}, !- Handle
  Space 1 - 8,                            !- Name
  {08c6d8e5-9340-41d2-beee-2e29e046651d}, !- Space Type Name
  ,                                       !- Default Construction Set Name
  ,                                       !- Default Schedule Set Name
  ,                                       !- Direction of Relative North {deg}
  ,                                       !- X Origin {m}
  ,                                       !- Y Origin {m}
  ,                                       !- Z Origin {m}
  ,                                       !- Building Story Name
  {4a13e4af-4ebd-4d27-b1c6-48dc84fbb43c}, !- Thermal Zone Name
  ,                                       !- Part of Total Floor Area
  ,                                       !- Design Specification Outdoor Air Object Name
  {05bed556-79c5-4924-9c2a-88db0f756833}; !- Building Unit Name

OS:SpaceType,
  {08c6d8e5-9340-41d2-beee-2e29e046651d}, !- Handle
  115,                                    !- Name
  ,                                       !- Default Construction Set Name
  ,                                       !- Default Schedule Set Name