!- NOTE: Auto-generated from /test/osw_files/SFD_Multizone_2story_SL_UA_GRG_2Bed_2Bath_Denver_GasWHTank.osw

OS:Version,
  {5f0e5666-cdc0-4e0b-af6e-5061a0c1b52f}, !- Handle
  2.2.1;                                  !- Version Identifier

OS:Building,
  {bf305633-c5a1-4881-9edf-ca5e1a8e1274}, !- Handle
  Building,                               !- Name
  ,                                       !- Building Sector Type
  ,                                       !- North Axis {deg}
  ,                                       !- Nominal Floor to Floor Height {m}
  ,                                       !- Space Type Name
  ,                                       !- Default Construction Set Name
  ,                                       !- Default Schedule Set Name
  ,                                       !- Standards Number of Stories
  2,                                      !- Standards Number of Above Ground Stories
  singlefamilydetached;                   !- Standards Building Type

OS:YearDescription,
  {513d8dda-86cb-442a-b01c-1f7f0e0ac70e}; !- Handle

OS:SimulationControl,
  {2c487a4c-bac9-4ac5-b669-1e49d9da7c2b}, !- Handle
  ,                                       !- Do Zone Sizing Calculation
  ,                                       !- Do System Sizing Calculation
  ,                                       !- Do Plant Sizing Calculation
  No,                                     !- Run Simulation for Sizing Periods
  ;                                       !- Run Simulation for Weather File Run Periods

OS:Timestep,
  {4ebc9f1e-4707-402e-9844-67eb1ffbd522}, !- Handle
  6;                                      !- Number of Timesteps per Hour

OS:RunPeriod,
  {28df894d-6af9-4fb8-8f56-df1753344aa3}, !- Handle
  Run Period,                             !- Name
  1,                                      !- Begin Month
  1,                                      !- Begin Day of Month
  12,                                     !- End Month
  31,                                     !- End Day of Month
  ,                                       !- Use Weather File Holidays and Special Days
  ,                                       !- Use Weather File Daylight Saving Period
  ,                                       !- Apply Weekend Holiday Rule
  ,                                       !- Use Weather File Rain Indicators
  ,                                       !- Use Weather File Snow Indicators
  ;                                       !- Number of Times Runperiod to be Repeated

OS:Sizing:Parameters,
  {dde5af6f-7923-4600-a28a-7556673a0266}, !- Handle
  1.0,                                    !- Heating Sizing Factor
  1.0;                                    !- Cooling Sizing Factor

OS:ShadowCalculation,
  {ca758bea-4416-4626-9bba-3d8795c79bd6}, !- Handle
  20,                                     !- Calculation Frequency
  200;                                    !- Maximum Figures in Shadow Overlap Calculations

OS:SurfaceConvectionAlgorithm:Inside,
  {aaabfc36-718a-4ab0-b622-f186ebb45230}, !- Handle
  TARP;                                   !- Algorithm

OS:SurfaceConvectionAlgorithm:Outside,
  {9a0a9f6f-4bbd-4b12-a121-9492a1fcd7d6}, !- Handle
  DOE-2;                                  !- Algorithm

OS:HeatBalanceAlgorithm,
  {9d93e563-e1e0-46d7-9e39-d1c8aceb7212}, !- Handle
  ConductionTransferFunction,             !- Algorithm
  200;                                    !- Surface Temperature Upper Limit {C}

OS:ZoneCapacitanceMultiplier:ResearchSpecial,
  {6bfced16-b16f-47f6-8223-f7e267d75d19}, !- Handle
  ,                                       !- Temperature Capacity Multiplier
  15,                                     !- Humidity Capacity Multiplier
  ;                                       !- Carbon Dioxide Capacity Multiplier

OS:Space,
  {d125aa90-9883-4ce0-b996-4ac6ddbe65bf}, !- Handle
  Space 1 - 3,                            !- Name
  {606da699-beb0-49a5-b13d-3461bc5489bd}, !- Space Type Name
  ,                                       !- Default Construction Set Name
  ,                                       !- Default Schedule Set Name
  ,                                       !- Direction of Relative North {deg}
  ,                                       !- X Origin {m}
  ,                                       !- Y Origin {m}
  ,                                       !- Z Origin {m}
  {46377025-7301-40ab-8615-e41bef6144d7}, !- Building Story Name
  {023ebc0a-db4f-4407-bd31-2b9aa5d7bc9a}, !- Thermal Zone Name
  ,                                       !- Part of Total Floor Area
  ,                                       !- Design Specification Outdoor Air Object Name
  {b10db9da-a7e2-442d-a398-27a890e2fd6d}; !- Building Unit Name

OS:Surface,
  {95775ae6-fa3d-447d-8a1b-ee57f049932e}, !- Handle
   18,                                    !- Name
  Wall,                                   !- Surface Type
  ,                                       !- Construction Name
  {d125aa90-9883-4ce0-b996-4ac6ddbe65bf}, !- Space Name
  Surface,                                !- Outside Boundary Condition
  {d7e065ff-eedc-4950-9111-f295767a0d5a}, !- Outside Boundary Condition Object
  NoSun,                                  !- Sun Exposure
  NoWind,                                 !- Wind Exposure
  ,                                       !- View Factor to Ground
  ,                                       !- Number of Vertices
  -15.24, 10.9728, 3,                     !- X,Y,Z Vertex 1 {m}
  -15.24, 10.9728, 0,                     !- X,Y,Z Vertex 2 {m}
  -15.24, 17.6784, 0,                     !- X,Y,Z Vertex 3 {m}
  -15.24, 17.6784, 3;                     !- X,Y,Z Vertex 4 {m}

OS:Surface,
  {0ef82552-3184-4c46-bdfc-14c28e04d658}, !- Handle
   12,                                    !- Name
  Floor,                                  !- Surface Type
  ,                                       !- Construction Name
  {d125aa90-9883-4ce0-b996-4ac6ddbe65bf}, !- Space Name
  Ground,                                 !- Outside Boundary Condition
  ,                                       !- Outside Boundary Condition Object
  NoSun,                                  !- Sun Exposure
  NoWind,                                 !- Wind Exposure
  ,                                       !- View Factor to Ground
  ,                                       !- Number of Vertices
  -15.24, 10.9728, 0,                     !- X,Y,Z Vertex 1 {m}
  -16.4592, 10.9728, 0,                   !- X,Y,Z Vertex 2 {m}
  -16.4592, 12.8016, 0,                   !- X,Y,Z Vertex 3 {m}
  -16.4592, 17.6784, 0,                   !- X,Y,Z Vertex 4 {m}
  -15.24, 17.6784, 0;                     !- X,Y,Z Vertex 5 {m}

OS:Surface,
  {d445dcf6-1d65-4ef3-b716-b5849ef1b019}, !- Handle
   13,                                    !- Name
  RoofCeiling,                            !- Surface Type
  ,                                       !- Construction Name
  {d125aa90-9883-4ce0-b996-4ac6ddbe65bf}, !- Space Name
  Surface,                                !- Outside Boundary Condition
  {797fef16-a269-4e63-a8b0-e4bcbdb9016a}, !- Outside Boundary Condition Object
  NoSun,                                  !- Sun Exposure
  NoWind,                                 !- Wind Exposure
  ,                                       !- View Factor to Ground
  ,                                       !- Number of Vertices
  -15.24, 17.6784, 3,                     !- X,Y,Z Vertex 1 {m}
  -16.4592, 17.6784, 3,                   !- X,Y,Z Vertex 2 {m}
  -16.4592, 12.8016, 3,                   !- X,Y,Z Vertex 3 {m}
  -16.4592, 10.9728, 3,                   !- X,Y,Z Vertex 4 {m}
  -15.24, 10.9728, 3;                     !- X,Y,Z Vertex 5 {m}

OS:Surface,
  {69040390-70bb-4f9f-96fa-dcc3211505b1}, !- Handle
   14,                                    !- Name
  Wall,                                   !- Surface Type
  ,                                       !- Construction Name
  {d125aa90-9883-4ce0-b996-4ac6ddbe65bf}, !- Space Name
  Outdoors,                               !- Outside Boundary Condition
  ,                                       !- Outside Boundary Condition Object
  SunExposed,                             !- Sun Exposure
  WindExposed,                            !- Wind Exposure
  ,                                       !- View Factor to Ground
  ,                                       !- Number of Vertices
  -16.4592, 10.9728, 3,                   !- X,Y,Z Vertex 1 {m}
  -16.4592, 10.9728, 0,                   !- X,Y,Z Vertex 2 {m}
  -15.24, 10.9728, 0,                     !- X,Y,Z Vertex 3 {m}
  -15.24, 10.9728, 3;                     !- X,Y,Z Vertex 4 {m}

OS:Surface,
  {530cf6b7-e213-4b96-8ec6-313c1161cccf}, !- Handle
   17,                                    !- Name
  Wall,                                   !- Surface Type
  ,                                       !- Construction Name
  {d125aa90-9883-4ce0-b996-4ac6ddbe65bf}, !- Space Name
  Outdoors,                               !- Outside Boundary Condition
  ,                                       !- Outside Boundary Condition Object
  SunExposed,                             !- Sun Exposure
  WindExposed,                            !- Wind Exposure
  ,                                       !- View Factor to Ground
  ,                                       !- Number of Vertices
  -15.24, 17.6784, 3,                     !- X,Y,Z Vertex 1 {m}
  -15.24, 17.6784, 0,                     !- X,Y,Z Vertex 2 {m}
  -16.4592, 17.6784, 0,                   !- X,Y,Z Vertex 3 {m}
  -16.4592, 17.6784, 3;                   !- X,Y,Z Vertex 4 {m}

OS:Surface,
  {785701f9-47a2-4155-8326-5135ec8a639f}, !- Handle
   16,                                    !- Name
  Wall,                                   !- Surface Type
  ,                                       !- Construction Name
  {d125aa90-9883-4ce0-b996-4ac6ddbe65bf}, !- Space Name
  Surface,                                !- Outside Boundary Condition
  {84403ba1-f259-43b5-a089-cec195da92af}, !- Outside Boundary Condition Object
  NoSun,                                  !- Sun Exposure
  NoWind,                                 !- Wind Exposure
  ,                                       !- View Factor to Ground
  ,                                       !- Number of Vertices
  -16.4592, 17.6784, 3,                   !- X,Y,Z Vertex 1 {m}
  -16.4592, 17.6784, 0,                   !- X,Y,Z Vertex 2 {m}
  -16.4592, 12.8016, 0,                   !- X,Y,Z Vertex 3 {m}
  -16.4592, 12.8016, 3;                   !- X,Y,Z Vertex 4 {m}

OS:Surface,
  {1214d4c5-8829-4a9f-a5bf-33494b606a3e}, !- Handle
   15,                                    !- Name
  Wall,                                   !- Surface Type
  ,                                       !- Construction Name
  {d125aa90-9883-4ce0-b996-4ac6ddbe65bf}, !- Space Name
  Surface,                                !- Outside Boundary Condition
  {a297dd4d-aff1-41b1-9433-f62d3a295ebb}, !- Outside Boundary Condition Object
  NoSun,                                  !- Sun Exposure
  NoWind,                                 !- Wind Exposure
  ,                                       !- View Factor to Ground
  ,                                       !- Number of Vertices
  -16.4592, 12.8016, 3,                   !- X,Y,Z Vertex 1 {m}
  -16.4592, 12.8016, 0,                   !- X,Y,Z Vertex 2 {m}
  -16.4592, 10.9728, 0,                   !- X,Y,Z Vertex 3 {m}
  -16.4592, 10.9728, 3;                   !- X,Y,Z Vertex 4 {m}

OS:ThermalZone,
  {023ebc0a-db4f-4407-bd31-2b9aa5d7bc9a}, !- Handle
  hallway 1 zone,                         !- Name
  ,                                       !- Multiplier
  ,                                       !- Ceiling Height {m}
  ,                                       !- Volume {m3}
  ,                                       !- Floor Area {m2}
  ,                                       !- Zone Inside Convection Algorithm
  ,                                       !- Zone Outside Convection Algorithm
  ,                                       !- Zone Conditioning Equipment List Name
  {07a21533-1fe5-491a-bfe1-ae311ff649df}, !- Zone Air Inlet Port List
  {c70c31c8-12f4-4655-82c8-e019d6ca3cd1}, !- Zone Air Exhaust Port List
  {da3dc36f-0024-480a-813f-9c1186749f52}, !- Zone Air Node Name
  ,                                       !- Zone Return Air Node Name
  ,                                       !- Primary Daylighting Control Name
  ,                                       !- Fraction of Zone Controlled by Primary Daylighting Control
  ,                                       !- Secondary Daylighting Control Name
  ,                                       !- Fraction of Zone Controlled by Secondary Daylighting Control
  ,                                       !- Illuminance Map Name
  ,                                       !- Group Rendering Name
  ,                                       !- Thermostat Name
  No;                                     !- Use Ideal Air Loads

OS:Node,
  {cc4ecf4a-5817-4267-af57-f9bb2d56f8a5}, !- Handle
  Node 1,                                 !- Name
  {da3dc36f-0024-480a-813f-9c1186749f52}, !- Inlet Port
  ;                                       !- Outlet Port

OS:Connection,
  {da3dc36f-0024-480a-813f-9c1186749f52}, !- Handle
  {92dd45e7-200d-45c2-908b-48ba9fcbceaf}, !- Name
  {023ebc0a-db4f-4407-bd31-2b9aa5d7bc9a}, !- Source Object
  11,                                     !- Outlet Port
  {cc4ecf4a-5817-4267-af57-f9bb2d56f8a5}, !- Target Object
  2;                                      !- Inlet Port

OS:PortList,
  {07a21533-1fe5-491a-bfe1-ae311ff649df}, !- Handle
  {cec6adef-797a-4067-967b-490c52cb2c76}, !- Name
  {023ebc0a-db4f-4407-bd31-2b9aa5d7bc9a}; !- HVAC Component

OS:PortList,
  {c70c31c8-12f4-4655-82c8-e019d6ca3cd1}, !- Handle
  {d7da698e-7e71-45a6-a54c-d6dd48d5c34e}, !- Name
  {023ebc0a-db4f-4407-bd31-2b9aa5d7bc9a}; !- HVAC Component

OS:Sizing:Zone,
  {f6d14a4b-332e-4b73-a5c4-5891a8e72210}, !- Handle
  {023ebc0a-db4f-4407-bd31-2b9aa5d7bc9a}, !- Zone or ZoneList Name
  SupplyAirTemperature,                   !- Zone Cooling Design Supply Air Temperature Input Method
  14,                                     !- Zone Cooling Design Supply Air Temperature {C}
  11.11,                                  !- Zone Cooling Design Supply Air Temperature Difference {deltaC}
  SupplyAirTemperature,                   !- Zone Heating Design Supply Air Temperature Input Method
  40,                                     !- Zone Heating Design Supply Air Temperature {C}
  11.11,                                  !- Zone Heating Design Supply Air Temperature Difference {deltaC}
  0.0085,                                 !- Zone Cooling Design Supply Air Humidity Ratio {kg-H2O/kg-air}
  0.008,                                  !- Zone Heating Design Supply Air Humidity Ratio {kg-H2O/kg-air}
  ,                                       !- Zone Heating Sizing Factor
  ,                                       !- Zone Cooling Sizing Factor
  DesignDay,                              !- Cooling Design Air Flow Method
  ,                                       !- Cooling Design Air Flow Rate {m3/s}
  ,                                       !- Cooling Minimum Air Flow per Zone Floor Area {m3/s-m2}
  ,                                       !- Cooling Minimum Air Flow {m3/s}
  ,                                       !- Cooling Minimum Air Flow Fraction
  DesignDay,                              !- Heating Design Air Flow Method
  ,                                       !- Heating Design Air Flow Rate {m3/s}
  ,                                       !- Heating Maximum Air Flow per Zone Floor Area {m3/s-m2}
  ,                                       !- Heating Maximum Air Flow {m3/s}
  ,                                       !- Heating Maximum Air Flow Fraction
  ,                                       !- Design Zone Air Distribution Effectiveness in Cooling Mode
  ,                                       !- Design Zone Air Distribution Effectiveness in Heating Mode
  No,                                     !- Account for Dedicated Outdoor Air System
  NeutralSupplyAir,                       !- Dedicated Outdoor Air System Control Strategy
  autosize,                               !- Dedicated Outdoor Air Low Setpoint Temperature for Design {C}
  autosize;                               !- Dedicated Outdoor Air High Setpoint Temperature for Design {C}

OS:ZoneHVAC:EquipmentList,
  {52ff8f0b-b599-46cd-b5c3-fc736aebf58e}, !- Handle
  Zone HVAC Equipment List 1,             !- Name
  {023ebc0a-db4f-4407-bd31-2b9aa5d7bc9a}; !- Thermal Zone

OS:SpaceType,
  {606da699-beb0-49a5-b13d-3461bc5489bd}, !- Handle
  living,                                 !- Name
  ,                                       !- Default Construction Set Name
  ,                                       !- Default Schedule Set Name
  ,                                       !- Group Rendering Name
  ,                                       !- Design Specification Outdoor Air Object Name
  ,                                       !- Standards Building Type
  living;                                 !- Standards Space Type

OS:BuildingStory,
  {46377025-7301-40ab-8615-e41bef6144d7}, !- Handle
  Story 1,                                !- Name
  ,                                       !- Nominal Z Coordinate {m}
  ,                                       !- Nominal Floor to Floor Height {m}
  ,                                       !- Default Construction Set Name
  ,                                       !- Default Schedule Set Name
  ;                                       !- Group Rendering Name

OS:BuildingUnit,
  {b10db9da-a7e2-442d-a398-27a890e2fd6d}, !- Handle
  unit 1,                                 !- Name
  ,                                       !- Rendering Color
  ,                                       !- Building Unit Type
  SizingInfoGarageFracUnderFinishedSpace, !- Building Unit Feature Name 1
  Double,                                 !- Building Unit Feature Data Type 1
  0.5,                                    !- Building Unit Feature Value 1
  NumberOfBedrooms,                       !- Building Unit Feature Name 2
  Integer,                                !- Building Unit Feature Data Type 2
  2,                                      !- Building Unit Feature Value 2
  NumberOfBathrooms,                      !- Building Unit Feature Name 3
  Double,                                 !- Building Unit Feature Data Type 3
  2,                                      !- Building Unit Feature Value 3
  DHWSchedIndex,                          !- Building Unit Feature Name 4
  Integer,                                !- Building Unit Feature Data Type 4
  0;                                      !- Building Unit Feature Value 4

OS:Space,
  {9a3c559a-db87-48a4-8389-f7605d085435}, !- Handle
  Space 2 - 2,                            !- Name
  {606da699-beb0-49a5-b13d-3461bc5489bd}, !- Space Type Name
  ,                                       !- Default Construction Set Name
  ,                                       !- Default Schedule Set Name
  ,                                       !- Direction of Relative North {deg}
  ,                                       !- X Origin {m}
  ,                                       !- Y Origin {m}
  ,                                       !- Z Origin {m}
  {ac06930a-4b3d-43e2-85d4-222213fea073}, !- Building Story Name
  {892a5cb4-8da6-4043-9f5d-4c9cce68118b}, !- Thermal Zone Name
  ,                                       !- Part of Total Floor Area
  ,                                       !- Design Specification Outdoor Air Object Name
  {b10db9da-a7e2-442d-a398-27a890e2fd6d}; !- Building Unit Name

OS:Surface,
  {797fef16-a269-4e63-a8b0-e4bcbdb9016a}, !- Handle
   49,                                    !- Name
  Floor,                                  !- Surface Type
  ,                                       !- Construction Name
  {9a3c559a-db87-48a4-8389-f7605d085435}, !- Space Name
  Surface,                                !- Outside Boundary Condition
  {d445dcf6-1d65-4ef3-b716-b5849ef1b019}, !- Outside Boundary Condition Object
  NoSun,                                  !- Sun Exposure
  NoWind,                                 !- Wind Exposure
  ,                                       !- View Factor to Ground
  ,                                       !- Number of Vertices
  -15.24, 10.9728, 3,                     !- X,Y,Z Vertex 1 {m}
  -16.4592, 10.9728, 3,                   !- X,Y,Z Vertex 2 {m}
  -16.4592, 12.8016, 3,                   !- X,Y,Z Vertex 3 {m}
  -16.4592, 17.6784, 3,                   !- X,Y,Z Vertex 4 {m}
  -15.24, 17.6784, 3;                     !- X,Y,Z Vertex 5 {m}

OS:Surface,
  {2961f12b-036b-46d7-99b8-f0b59338fadc}, !- Handle
   50,                                    !- Name
  RoofCeiling,                            !- Surface Type
  ,                                       !- Construction Name
  {9a3c559a-db87-48a4-8389-f7605d085435}, !- Space Name
  Surface,                                !- Outside Boundary Condition
  {75a539e3-5292-4a02-8c92-d36002e9cf21}, !- Outside Boundary Condition Object
  NoSun,                                  !- Sun Exposure
  NoWind,                                 !- Wind Exposure
  ,                                       !- View Factor to Ground
  ,                                       !- Number of Vertices
  -15.24, 10.9728, 6,                     !- X,Y,Z Vertex 1 {m}
  -15.24, 17.6784, 6,                     !- X,Y,Z Vertex 2 {m}
  -16.4592, 17.6784, 6,                   !- X,Y,Z Vertex 3 {m}
  -16.4592, 10.9728, 6;                   !- X,Y,Z Vertex 4 {m}

OS:Surface,
  {9556c4b0-1aa0-4257-9a39-948bffdf877a}, !- Handle
   51,                                    !- Name
  Wall,                                   !- Surface Type
  ,                                       !- Construction Name
  {9a3c559a-db87-48a4-8389-f7605d085435}, !- Space Name
  Outdoors,                               !- Outside Boundary Condition
  ,                                       !- Outside Boundary Condition Object
  SunExposed,                             !- Sun Exposure
  WindExposed,                            !- Wind Exposure
  ,                                       !- View Factor to Ground
  ,                                       !- Number of Vertices
  -16.4592, 10.9728, 6,                   !- X,Y,Z Vertex 1 {m}
  -16.4592, 10.9728, 3,                   !- X,Y,Z Vertex 2 {m}
  -15.24, 10.9728, 3,                     !- X,Y,Z Vertex 3 {m}
  -15.24, 10.9728, 6;                     !- X,Y,Z Vertex 4 {m}

OS:Surface,
  {923d2d1e-7d07-4a60-a600-b59897938614}, !- Handle
   52,                                    !- Name
  Wall,                                   !- Surface Type
  ,                                       !- Construction Name
  {9a3c559a-db87-48a4-8389-f7605d085435}, !- Space Name
  Surface,                                !- Outside Boundary Condition
  {805ecbe6-422a-46fb-bf25-574deb37787f}, !- Outside Boundary Condition Object
  NoSun,                                  !- Sun Exposure
  NoWind,                                 !- Wind Exposure
  ,                                       !- View Factor to Ground
  ,                                       !- Number of Vertices
  -16.4592, 12.8016, 6,                   !- X,Y,Z Vertex 1 {m}
  -16.4592, 12.8016, 3,                   !- X,Y,Z Vertex 2 {m}
  -16.4592, 10.9728, 3,                   !- X,Y,Z Vertex 3 {m}
  -16.4592, 10.9728, 6;                   !- X,Y,Z Vertex 4 {m}

OS:Surface,
  {43fc7dc6-e2e4-4f85-8ecd-74e9e5906e30}, !- Handle
   53,                                    !- Name
  Wall,                                   !- Surface Type
  ,                                       !- Construction Name
  {9a3c559a-db87-48a4-8389-f7605d085435}, !- Space Name
  Surface,                                !- Outside Boundary Condition
  {39e444e2-6967-495b-8138-dc5a820b1e70}, !- Outside Boundary Condition Object
  NoSun,                                  !- Sun Exposure
  NoWind,                                 !- Wind Exposure
  ,                                       !- View Factor to Ground
  ,                                       !- Number of Vertices
  -16.4592, 17.6784, 6,                   !- X,Y,Z Vertex 1 {m}
  -16.4592, 17.6784, 3,                   !- X,Y,Z Vertex 2 {m}
  -16.4592, 12.8016, 3,                   !- X,Y,Z Vertex 3 {m}
  -16.4592, 12.8016, 6;                   !- X,Y,Z Vertex 4 {m}

OS:Surface,
  {657f9f4c-b1b0-4897-a5a8-164af22409ca}, !- Handle
   54,                                    !- Name
  Wall,                                   !- Surface Type
  ,                                       !- Construction Name
  {9a3c559a-db87-48a4-8389-f7605d085435}, !- Space Name
  Outdoors,                               !- Outside Boundary Condition
  ,                                       !- Outside Boundary Condition Object
  SunExposed,                             !- Sun Exposure
  WindExposed,                            !- Wind Exposure
  ,                                       !- View Factor to Ground
  ,                                       !- Number of Vertices
  -15.24, 17.6784, 6,                     !- X,Y,Z Vertex 1 {m}
  -15.24, 17.6784, 3,                     !- X,Y,Z Vertex 2 {m}
  -16.4592, 17.6784, 3,                   !- X,Y,Z Vertex 3 {m}
  -16.4592, 17.6784, 6;                   !- X,Y,Z Vertex 4 {m}

OS:Surface,
  {b1a403ed-1a0c-4a00-97b4-0016cfe3ac33}, !- Handle
   55,                                    !- Name
  Wall,                                   !- Surface Type
  ,                                       !- Construction Name
  {9a3c559a-db87-48a4-8389-f7605d085435}, !- Space Name
  Surface,                                !- Outside Boundary Condition
  {9dde9c31-6b2a-4119-bf5e-7f10cb60b81a}, !- Outside Boundary Condition Object
  NoSun,                                  !- Sun Exposure
  NoWind,                                 !- Wind Exposure
  ,                                       !- View Factor to Ground
  ,                                       !- Number of Vertices
  -15.24, 10.9728, 6,                     !- X,Y,Z Vertex 1 {m}
  -15.24, 10.9728, 3,                     !- X,Y,Z Vertex 2 {m}
  -15.24, 17.6784, 3,                     !- X,Y,Z Vertex 3 {m}
  -15.24, 17.6784, 6;                     !- X,Y,Z Vertex 4 {m}

OS:ThermalZone,
  {892a5cb4-8da6-4043-9f5d-4c9cce68118b}, !- Handle
  hallway 2 zone,                         !- Name
  ,                                       !- Multiplier
  ,                                       !- Ceiling Height {m}
  ,                                       !- Volume {m3}
  ,                                       !- Floor Area {m2}
  ,                                       !- Zone Inside Convection Algorithm
  ,                                       !- Zone Outside Convection Algorithm
  ,                                       !- Zone Conditioning Equipment List Name
  {a993f175-bf95-4339-8340-adbb47f9f4b8}, !- Zone Air Inlet Port List
  {65d4e41f-bbc5-4f83-96fc-fa042d80c255}, !- Zone Air Exhaust Port List
  {4063a94c-b952-421a-b75f-7dec8b0a152b}, !- Zone Air Node Name
  ,                                       !- Zone Return Air Node Name
  ,                                       !- Primary Daylighting Control Name
  ,                                       !- Fraction of Zone Controlled by Primary Daylighting Control
  ,                                       !- Secondary Daylighting Control Name
  ,                                       !- Fraction of Zone Controlled by Secondary Daylighting Control
  ,                                       !- Illuminance Map Name
  ,                                       !- Group Rendering Name
  ,                                       !- Thermostat Name
  No;                                     !- Use Ideal Air Loads

OS:Node,
  {0bae28d2-14fb-401a-9295-9c9d692f44f0}, !- Handle
  Node 2,                                 !- Name
  {4063a94c-b952-421a-b75f-7dec8b0a152b}, !- Inlet Port
  ;                                       !- Outlet Port

OS:Connection,
  {4063a94c-b952-421a-b75f-7dec8b0a152b}, !- Handle
  {cd0f3be1-a0ba-4b59-8790-280a2f8257a0}, !- Name
  {892a5cb4-8da6-4043-9f5d-4c9cce68118b}, !- Source Object
  11,                                     !- Outlet Port
  {0bae28d2-14fb-401a-9295-9c9d692f44f0}, !- Target Object
  2;                                      !- Inlet Port

OS:PortList,
  {a993f175-bf95-4339-8340-adbb47f9f4b8}, !- Handle
  {b25b16fb-5fc0-4d10-ba77-48b4f7d8c683}, !- Name
  {892a5cb4-8da6-4043-9f5d-4c9cce68118b}; !- HVAC Component

OS:PortList,
  {65d4e41f-bbc5-4f83-96fc-fa042d80c255}, !- Handle
  {05dfa6a7-e10e-4afa-acb9-593b07ce6169}, !- Name
  {892a5cb4-8da6-4043-9f5d-4c9cce68118b}; !- HVAC Component

OS:Sizing:Zone,
  {97f76985-5788-482b-abdf-2c389d6b7ac4}, !- Handle
  {892a5cb4-8da6-4043-9f5d-4c9cce68118b}, !- Zone or ZoneList Name
  SupplyAirTemperature,                   !- Zone Cooling Design Supply Air Temperature Input Method
  14,                                     !- Zone Cooling Design Supply Air Temperature {C}
  11.11,                                  !- Zone Cooling Design Supply Air Temperature Difference {deltaC}
  SupplyAirTemperature,                   !- Zone Heating Design Supply Air Temperature Input Method
  40,                                     !- Zone Heating Design Supply Air Temperature {C}
  11.11,                                  !- Zone Heating Design Supply Air Temperature Difference {deltaC}
  0.0085,                                 !- Zone Cooling Design Supply Air Humidity Ratio {kg-H2O/kg-air}
  0.008,                                  !- Zone Heating Design Supply Air Humidity Ratio {kg-H2O/kg-air}
  ,                                       !- Zone Heating Sizing Factor
  ,                                       !- Zone Cooling Sizing Factor