!- NOTE: Auto-generated from /test/osw_files/SFD_2000sqft_2story_FB_UA_Denver_ASHP2.osw

OS:Version,
  {39ee1f34-c2e5-43c1-8854-03d15891da15}, !- Handle
  2.2.1;                                  !- Version Identifier

OS:Building,
  {bf305633-c5a1-4881-9edf-ca5e1a8e1274}, !- Handle
  Building,                               !- Name
  ,                                       !- Building Sector Type
  ,                                       !- North Axis {deg}
  ,                                       !- Nominal Floor to Floor Height {m}
  ,                                       !- Space Type Name
  ,                                       !- Default Construction Set Name
  ,                                       !- Default Schedule Set Name
  3,                                      !- Standards Number of Stories
  2,                                      !- Standards Number of Above Ground Stories
  singlefamilydetached,                   !- Standards Building Type
  1;                                      !- Standards Number of Living Units

OS:YearDescription,
  {513d8dda-86cb-442a-b01c-1f7f0e0ac70e}; !- Handle

OS:SimulationControl,
  {2c487a4c-bac9-4ac5-b669-1e49d9da7c2b}, !- Handle
  ,                                       !- Do Zone Sizing Calculation
  ,                                       !- Do System Sizing Calculation
  ,                                       !- Do Plant Sizing Calculation
  No,                                     !- Run Simulation for Sizing Periods
  ;                                       !- Run Simulation for Weather File Run Periods

OS:Timestep,
  {4ebc9f1e-4707-402e-9844-67eb1ffbd522}, !- Handle
  6;                                      !- Number of Timesteps per Hour

OS:RunPeriod,
  {28df894d-6af9-4fb8-8f56-df1753344aa3}, !- Handle
  Run Period,                             !- Name
  1,                                      !- Begin Month
  1,                                      !- Begin Day of Month
  12,                                     !- End Month
  31,                                     !- End Day of Month
  ,                                       !- Use Weather File Holidays and Special Days
  ,                                       !- Use Weather File Daylight Saving Period
  ,                                       !- Apply Weekend Holiday Rule
  ,                                       !- Use Weather File Rain Indicators
  ,                                       !- Use Weather File Snow Indicators
  ;                                       !- Number of Times Runperiod to be Repeated

OS:Sizing:Parameters,
  {dde5af6f-7923-4600-a28a-7556673a0266}, !- Handle
  1.0,                                    !- Heating Sizing Factor
  1.0;                                    !- Cooling Sizing Factor

OS:ShadowCalculation,
  {ca758bea-4416-4626-9bba-3d8795c79bd6}, !- Handle
  20,                                     !- Calculation Frequency
  200;                                    !- Maximum Figures in Shadow Overlap Calculations

OS:SurfaceConvectionAlgorithm:Inside,
  {aaabfc36-718a-4ab0-b622-f186ebb45230}, !- Handle
  TARP;                                   !- Algorithm

OS:SurfaceConvectionAlgorithm:Outside,
  {9a0a9f6f-4bbd-4b12-a121-9492a1fcd7d6}, !- Handle
  DOE-2;                                  !- Algorithm

OS:HeatBalanceAlgorithm,
  {9d93e563-e1e0-46d7-9e39-d1c8aceb7212}, !- Handle
  ConductionTransferFunction,             !- Algorithm
  200;                                    !- Surface Temperature Upper Limit {C}

OS:ZoneCapacitanceMultiplier:ResearchSpecial,
  {6bfced16-b16f-47f6-8223-f7e267d75d19}, !- Handle
  ,                                       !- Temperature Capacity Multiplier
  15,                                     !- Humidity Capacity Multiplier
  ;                                       !- Carbon Dioxide Capacity Multiplier

OS:ThermalZone,
  {7a4d8ef3-1333-4be0-97b8-ad63fe42d887}, !- Handle
  living zone,                            !- Name
  ,                                       !- Multiplier
  ,                                       !- Ceiling Height {m}
  ,                                       !- Volume {m3}
  ,                                       !- Floor Area {m2}
  ,                                       !- Zone Inside Convection Algorithm
  ,                                       !- Zone Outside Convection Algorithm
  ,                                       !- Zone Conditioning Equipment List Name
  {8627e774-bb2f-4284-8a60-992e7dab0450}, !- Zone Air Inlet Port List
  {5b854b4b-0087-41da-8d58-d7644c51a141}, !- Zone Air Exhaust Port List
  {94012ede-7c2b-4110-8a1c-d8ee332250b2}, !- Zone Air Node Name
  {fc429707-ecfb-4403-b785-eb71a13f11a0}, !- Zone Return Air Node Name
  ,                                       !- Primary Daylighting Control Name
  ,                                       !- Fraction of Zone Controlled by Primary Daylighting Control
  ,                                       !- Secondary Daylighting Control Name
  ,                                       !- Fraction of Zone Controlled by Secondary Daylighting Control
  ,                                       !- Illuminance Map Name
  ,                                       !- Group Rendering Name
  {2b887ef7-492d-489e-ae46-b7892c4969d7}, !- Thermostat Name
  No;                                     !- Use Ideal Air Loads

OS:Node,
  {28e4a83a-cb40-46e4-88d9-8587c1e117c8}, !- Handle
  Node 1,                                 !- Name
  {94012ede-7c2b-4110-8a1c-d8ee332250b2}, !- Inlet Port
  ;                                       !- Outlet Port

OS:Connection,
  {94012ede-7c2b-4110-8a1c-d8ee332250b2}, !- Handle
  {56fa289d-2183-41cb-a887-811daa6b43e7}, !- Name
  {7a4d8ef3-1333-4be0-97b8-ad63fe42d887}, !- Source Object
  11,                                     !- Outlet Port
  {28e4a83a-cb40-46e4-88d9-8587c1e117c8}, !- Target Object
  2;                                      !- Inlet Port

OS:PortList,
  {8627e774-bb2f-4284-8a60-992e7dab0450}, !- Handle
  {5decd2a0-e1d8-471c-9535-2a05009dd80c}, !- Name
  {7a4d8ef3-1333-4be0-97b8-ad63fe42d887}, !- HVAC Component
  {717744d1-627c-46bc-ba3e-be04c6257870}; !- Port 1

OS:PortList,
  {5b854b4b-0087-41da-8d58-d7644c51a141}, !- Handle
  {fbf466ae-cae1-4483-b240-3390c6224413}, !- Name
  {7a4d8ef3-1333-4be0-97b8-ad63fe42d887}; !- HVAC Component

OS:Sizing:Zone,
  {63215046-6528-4573-8c8f-79c1ec078b58}, !- Handle
  {7a4d8ef3-1333-4be0-97b8-ad63fe42d887}, !- Zone or ZoneList Name
  SupplyAirTemperature,                   !- Zone Cooling Design Supply Air Temperature Input Method
  14,                                     !- Zone Cooling Design Supply Air Temperature {C}
  11.11,                                  !- Zone Cooling Design Supply Air Temperature Difference {deltaC}
  SupplyAirTemperature,                   !- Zone Heating Design Supply Air Temperature Input Method
  40,                                     !- Zone Heating Design Supply Air Temperature {C}
  11.11,                                  !- Zone Heating Design Supply Air Temperature Difference {deltaC}
  0.0085,                                 !- Zone Cooling Design Supply Air Humidity Ratio {kg-H2O/kg-air}
  0.008,                                  !- Zone Heating Design Supply Air Humidity Ratio {kg-H2O/kg-air}
  ,                                       !- Zone Heating Sizing Factor
  ,                                       !- Zone Cooling Sizing Factor
  DesignDay,                              !- Cooling Design Air Flow Method
  ,                                       !- Cooling Design Air Flow Rate {m3/s}
  ,                                       !- Cooling Minimum Air Flow per Zone Floor Area {m3/s-m2}
  ,                                       !- Cooling Minimum Air Flow {m3/s}
  ,                                       !- Cooling Minimum Air Flow Fraction
  DesignDay,                              !- Heating Design Air Flow Method
  ,                                       !- Heating Design Air Flow Rate {m3/s}
  ,                                       !- Heating Maximum Air Flow per Zone Floor Area {m3/s-m2}
  ,                                       !- Heating Maximum Air Flow {m3/s}
  ,                                       !- Heating Maximum Air Flow Fraction
  ,                                       !- Design Zone Air Distribution Effectiveness in Cooling Mode
  ,                                       !- Design Zone Air Distribution Effectiveness in Heating Mode
  No,                                     !- Account for Dedicated Outdoor Air System
  NeutralSupplyAir,                       !- Dedicated Outdoor Air System Control Strategy
  autosize,                               !- Dedicated Outdoor Air Low Setpoint Temperature for Design {C}
  autosize;                               !- Dedicated Outdoor Air High Setpoint Temperature for Design {C}

OS:ZoneHVAC:EquipmentList,
  {da95af6c-651c-4620-8d90-cd8d45fa2400}, !- Handle
  Zone HVAC Equipment List 1,             !- Name
  {7a4d8ef3-1333-4be0-97b8-ad63fe42d887}, !- Thermal Zone
  {dc682447-b3fc-4b55-a683-66c89a32e813}, !- Zone Equipment 1
  1,                                      !- Zone Equipment Cooling Sequence 1
  1;                                      !- Zone Equipment Heating or No-Load Sequence 1

OS:Space,
  {c9483dc4-ab0b-489b-8a87-9c696f49afca}, !- Handle
  living space,                           !- Name
  ,                                       !- Space Type Name
  ,                                       !- Default Construction Set Name
  ,                                       !- Default Schedule Set Name
  -0,                                     !- Direction of Relative North {deg}
  0,                                      !- X Origin {m}
  0,                                      !- Y Origin {m}
  0,                                      !- Z Origin {m}
  ,                                       !- Building Story Name
  {7a4d8ef3-1333-4be0-97b8-ad63fe42d887}, !- Thermal Zone Name
  ,                                       !- Part of Total Floor Area
  ,                                       !- Design Specification Outdoor Air Object Name
  {29849c73-7942-4314-98d7-7b091d06134f}; !- Building Unit Name

OS:Surface,
  {dc43a662-8224-438b-8329-3a7572f689e3}, !- Handle
  Surface 1,                              !- Name
  Floor,                                  !- Surface Type
  ,                                       !- Construction Name
  {c9483dc4-ab0b-489b-8a87-9c696f49afca}, !- Space Name
  Surface,                                !- Outside Boundary Condition
  {aae43e43-f4c3-4038-9c20-64ac254993ec}, !- Outside Boundary Condition Object
  NoSun,                                  !- Sun Exposure
  NoWind,                                 !- Wind Exposure
  ,                                       !- View Factor to Ground
  ,                                       !- Number of Vertices
  0, 0, 0,                                !- X,Y,Z Vertex 1 {m}
  0, 5.56486118425249, 0,                 !- X,Y,Z Vertex 2 {m}
  11.129722368505, 5.56486118425249, 0,   !- X,Y,Z Vertex 3 {m}
  11.129722368505, 0, 0;                  !- X,Y,Z Vertex 4 {m}

OS:Surface,
  {1bf6cb22-54ea-499c-8598-daab5b9cf42f}, !- Handle
  Surface 2,                              !- Name
  Wall,                                   !- Surface Type
  ,                                       !- Construction Name
  {c9483dc4-ab0b-489b-8a87-9c696f49afca}, !- Space Name
  Outdoors,                               !- Outside Boundary Condition
  ,                                       !- Outside Boundary Condition Object
  SunExposed,                             !- Sun Exposure
  WindExposed,                            !- Wind Exposure
  ,                                       !- View Factor to Ground
  ,                                       !- Number of Vertices
  0, 5.56486118425249, 2.4384,            !- X,Y,Z Vertex 1 {m}
  0, 5.56486118425249, 0,                 !- X,Y,Z Vertex 2 {m}
  0, 0, 0,                                !- X,Y,Z Vertex 3 {m}
  0, 0, 2.4384;                           !- X,Y,Z Vertex 4 {m}

OS:Surface,
  {fae10e23-04fa-4cfe-8f9f-60296d3826b1}, !- Handle
  Surface 3,                              !- Name
  Wall,                                   !- Surface Type
  ,                                       !- Construction Name
  {c9483dc4-ab0b-489b-8a87-9c696f49afca}, !- Space Name
  Outdoors,                               !- Outside Boundary Condition
  ,                                       !- Outside Boundary Condition Object
  SunExposed,                             !- Sun Exposure
  WindExposed,                            !- Wind Exposure
  ,                                       !- View Factor to Ground
  ,                                       !- Number of Vertices
  11.129722368505, 5.56486118425249, 2.4384, !- X,Y,Z Vertex 1 {m}
  11.129722368505, 5.56486118425249, 0,   !- X,Y,Z Vertex 2 {m}
  0, 5.56486118425249, 0,                 !- X,Y,Z Vertex 3 {m}
  0, 5.56486118425249, 2.4384;            !- X,Y,Z Vertex 4 {m}

OS:Surface,
  {06c18260-88d8-4683-8069-201bfcc5a1d9}, !- Handle
  Surface 4,                              !- Name
  Wall,                                   !- Surface Type
  ,                                       !- Construction Name
  {c9483dc4-ab0b-489b-8a87-9c696f49afca}, !- Space Name
  Outdoors,                               !- Outside Boundary Condition
  ,                                       !- Outside Boundary Condition Object
  SunExposed,                             !- Sun Exposure
  WindExposed,                            !- Wind Exposure
  ,                                       !- View Factor to Ground
  ,                                       !- Number of Vertices
  11.129722368505, 0, 2.4384,             !- X,Y,Z Vertex 1 {m}
  11.129722368505, 0, 0,                  !- X,Y,Z Vertex 2 {m}
  11.129722368505, 5.56486118425249, 0,   !- X,Y,Z Vertex 3 {m}
  11.129722368505, 5.56486118425249, 2.4384; !- X,Y,Z Vertex 4 {m}

OS:Surface,
  {cc09d856-57c1-49a3-bfd5-11e74c2a25be}, !- Handle
  Surface 5,                              !- Name
  Wall,                                   !- Surface Type
  ,                                       !- Construction Name
  {c9483dc4-ab0b-489b-8a87-9c696f49afca}, !- Space Name
  Outdoors,                               !- Outside Boundary Condition
  ,                                       !- Outside Boundary Condition Object
  SunExposed,                             !- Sun Exposure
  WindExposed,                            !- Wind Exposure
  ,                                       !- View Factor to Ground
  ,                                       !- Number of Vertices
  0, 0, 2.4384,                           !- X,Y,Z Vertex 1 {m}
  0, 0, 0,                                !- X,Y,Z Vertex 2 {m}
  11.129722368505, 0, 0,                  !- X,Y,Z Vertex 3 {m}
  11.129722368505, 0, 2.4384;             !- X,Y,Z Vertex 4 {m}

OS:Surface,
  {bfd9255d-4242-4bed-8f20-b62ec20292e0}, !- Handle
  Surface 6,                              !- Name
  RoofCeiling,                            !- Surface Type
  ,                                       !- Construction Name
  {c9483dc4-ab0b-489b-8a87-9c696f49afca}, !- Space Name
  Surface,                                !- Outside Boundary Condition
  {7d08a521-40af-4980-9cfe-6ae2271b3967}, !- Outside Boundary Condition Object
  NoSun,                                  !- Sun Exposure
  NoWind,                                 !- Wind Exposure
  ,                                       !- View Factor to Ground
  ,                                       !- Number of Vertices
  11.129722368505, 0, 2.4384,             !- X,Y,Z Vertex 1 {m}
  11.129722368505, 5.56486118425249, 2.4384, !- X,Y,Z Vertex 2 {m}
  0, 5.56486118425249, 2.4384,            !- X,Y,Z Vertex 3 {m}
  0, 0, 2.4384;                           !- X,Y,Z Vertex 4 {m}

OS:Space,
  {f141f4a0-919f-474a-afa2-7b2225854e1d}, !- Handle
  living space|story 2,                   !- Name
  ,                                       !- Space Type Name
  ,                                       !- Default Construction Set Name
  ,                                       !- Default Schedule Set Name
  -0,                                     !- Direction of Relative North {deg}
  0,                                      !- X Origin {m}
  0,                                      !- Y Origin {m}
  2.4384,                                 !- Z Origin {m}
  ,                                       !- Building Story Name
  {7a4d8ef3-1333-4be0-97b8-ad63fe42d887}, !- Thermal Zone Name
  ,                                       !- Part of Total Floor Area
  ,                                       !- Design Specification Outdoor Air Object Name
  {29849c73-7942-4314-98d7-7b091d06134f}; !- Building Unit Name

OS:Surface,
  {7d08a521-40af-4980-9cfe-6ae2271b3967}, !- Handle
  Surface 7,                              !- Name
  Floor,                                  !- Surface Type
  ,                                       !- Construction Name
  {f141f4a0-919f-474a-afa2-7b2225854e1d}, !- Space Name
  Surface,                                !- Outside Boundary Condition
  {bfd9255d-4242-4bed-8f20-b62ec20292e0}, !- Outside Boundary Condition Object
  NoSun,                                  !- Sun Exposure
  NoWind,                                 !- Wind Exposure
  ,                                       !- View Factor to Ground
  ,                                       !- Number of Vertices
  0, 0, 0,                                !- X,Y,Z Vertex 1 {m}
  0, 5.56486118425249, 0,                 !- X,Y,Z Vertex 2 {m}
  11.129722368505, 5.56486118425249, 0,   !- X,Y,Z Vertex 3 {m}
  11.129722368505, 0, 0;                  !- X,Y,Z Vertex 4 {m}

OS:Surface,
  {d6708d0a-071f-42ad-b3b1-118ef97cd114}, !- Handle
  Surface 8,                              !- Name
  Wall,                                   !- Surface Type
  ,                                       !- Construction Name
  {f141f4a0-919f-474a-afa2-7b2225854e1d}, !- Space Name
  Outdoors,                               !- Outside Boundary Condition
  ,                                       !- Outside Boundary Condition Object
  SunExposed,                             !- Sun Exposure
  WindExposed,                            !- Wind Exposure
  ,                                       !- View Factor to Ground
  ,                                       !- Number of Vertices
  0, 5.56486118425249, 2.4384,            !- X,Y,Z Vertex 1 {m}
  0, 5.56486118425249, 0,                 !- X,Y,Z Vertex 2 {m}
  0, 0, 0,                                !- X,Y,Z Vertex 3 {m}
  0, 0, 2.4384;                           !- X,Y,Z Vertex 4 {m}

OS:Surface,
  {a5030f2d-2e5d-496c-9a13-275fb17ddb6c}, !- Handle
  Surface 9,                              !- Name
  Wall,                                   !- Surface Type
  ,                                       !- Construction Name
  {f141f4a0-919f-474a-afa2-7b2225854e1d}, !- Space Name
  Outdoors,                               !- Outside Boundary Condition
  ,                                       !- Outside Boundary Condition Object
  SunExposed,                             !- Sun Exposure
  WindExposed,                            !- Wind Exposure
  ,                                       !- View Factor to Ground
  ,                                       !- Number of Vertices
  11.129722368505, 5.56486118425249, 2.4384, !- X,Y,Z Vertex 1 {m}
  11.129722368505, 5.56486118425249, 0,   !- X,Y,Z Vertex 2 {m}
  0, 5.56486118425249, 0,                 !- X,Y,Z Vertex 3 {m}
  0, 5.56486118425249, 2.4384;            !- X,Y,Z Vertex 4 {m}

OS:Surface,
  {df5e0149-8ed1-498d-9a21-8599ddafaf9f}, !- Handle
  Surface 10,                             !- Name
  Wall,                                   !- Surface Type
  ,                                       !- Construction Name
  {f141f4a0-919f-474a-afa2-7b2225854e1d}, !- Space Name
  Outdoors,                               !- Outside Boundary Condition
  ,                                       !- Outside Boundary Condition Object
  SunExposed,                             !- Sun Exposure
  WindExposed,                            !- Wind Exposure
  ,                                       !- View Factor to Ground
  ,                                       !- Number of Vertices
  11.129722368505, 0, 2.4384,             !- X,Y,Z Vertex 1 {m}
  11.129722368505, 0, 0,                  !- X,Y,Z Vertex 2 {m}
  11.129722368505, 5.56486118425249, 0,   !- X,Y,Z Vertex 3 {m}
  11.129722368505, 5.56486118425249, 2.4384; !- X,Y,Z Vertex 4 {m}

OS:Surface,
  {74bfe9f4-752a-415e-a1b1-95d3db001863}, !- Handle
  Surface 11,                             !- Name
  Wall,                                   !- Surface Type
  ,                                       !- Construction Name
  {f141f4a0-919f-474a-afa2-7b2225854e1d}, !- Space Name
  Outdoors,                               !- Outside Boundary Condition
  ,                                       !- Outside Boundary Condition Object
  SunExposed,                             !- Sun Exposure
  WindExposed,                            !- Wind Exposure
  ,                                       !- View Factor to Ground
  ,                                       !- Number of Vertices
  0, 0, 2.4384,                           !- X,Y,Z Vertex 1 {m}
  0, 0, 0,                                !- X,Y,Z Vertex 2 {m}
  11.129722368505, 0, 0,                  !- X,Y,Z Vertex 3 {m}
  11.129722368505, 0, 2.4384;             !- X,Y,Z Vertex 4 {m}

OS:Surface,
  {fabbea20-723c-4ba3-a8a1-76ab2387eeb7}, !- Handle
  Surface 12,                             !- Name
  RoofCeiling,                            !- Surface Type
  ,                                       !- Construction Name
  {f141f4a0-919f-474a-afa2-7b2225854e1d}, !- Space Name
  Surface,                                !- Outside Boundary Condition
  {61d98c11-d089-4a4b-9e15-6233ad422632}, !- Outside Boundary Condition Object
  NoSun,                                  !- Sun Exposure
  NoWind,                                 !- Wind Exposure
  ,                                       !- View Factor to Ground
  ,                                       !- Number of Vertices
  11.129722368505, 0, 2.4384,             !- X,Y,Z Vertex 1 {m}
  11.129722368505, 5.56486118425249, 2.4384, !- X,Y,Z Vertex 2 {m}
  0, 5.56486118425249, 2.4384,            !- X,Y,Z Vertex 3 {m}
  0, 0, 2.4384;                           !- X,Y,Z Vertex 4 {m}

OS:Surface,
  {61d98c11-d089-4a4b-9e15-6233ad422632}, !- Handle
  Surface 13,                             !- Name
  Floor,                                  !- Surface Type
  ,                                       !- Construction Name
  {0978cc43-2d9d-4af5-b18b-ef9ae8040dc8}, !- Space Name
  Surface,                                !- Outside Boundary Condition
  {fabbea20-723c-4ba3-a8a1-76ab2387eeb7}, !- Outside Boundary Condition Object
  NoSun,                                  !- Sun Exposure
  NoWind,                                 !- Wind Exposure
  ,                                       !- View Factor to Ground
  ,                                       !- Number of Vertices
  0, 5.56486118425249, 0,                 !- X,Y,Z Vertex 1 {m}
  11.129722368505, 5.56486118425249, 0,   !- X,Y,Z Vertex 2 {m}
  11.129722368505, 0, 0,                  !- X,Y,Z Vertex 3 {m}
  0, 0, 0;                                !- X,Y,Z Vertex 4 {m}

OS:Surface,
  {7cb5570d-68b2-44e6-bc6b-0ba64d024d8e}, !- Handle
  Surface 14,                             !- Name
  RoofCeiling,                            !- Surface Type
  ,                                       !- Construction Name
  {0978cc43-2d9d-4af5-b18b-ef9ae8040dc8}, !- Space Name
  Outdoors,                               !- Outside Boundary Condition
  ,                                       !- Outside Boundary Condition Object
  SunExposed,                             !- Sun Exposure
  WindExposed,                            !- Wind Exposure
  ,                                       !- View Factor to Ground
  ,                                       !- Number of Vertices
  11.129722368505, 2.78243059212624, 1.39121529606312, !- X,Y,Z Vertex 1 {m}
  0, 2.78243059212624, 1.39121529606312,  !- X,Y,Z Vertex 2 {m}
  0, 0, 0,                                !- X,Y,Z Vertex 3 {m}
  11.129722368505, 0, 0;                  !- X,Y,Z Vertex 4 {m}

OS:Surface,
  {cd08c47c-4818-4f10-9981-8a8aa03725df}, !- Handle
  Surface 15,                             !- Name
  RoofCeiling,                            !- Surface Type
  ,                                       !- Construction Name
  {0978cc43-2d9d-4af5-b18b-ef9ae8040dc8}, !- Space Name
  Outdoors,                               !- Outside Boundary Condition
  ,                                       !- Outside Boundary Condition Object
  SunExposed,                             !- Sun Exposure
  WindExposed,                            !- Wind Exposure
  ,                                       !- View Factor to Ground
  ,                                       !- Number of Vertices
  0, 2.78243059212624, 1.39121529606312,  !- X,Y,Z Vertex 1 {m}
  11.129722368505, 2.78243059212624, 1.39121529606312, !- X,Y,Z Vertex 2 {m}
  11.129722368505, 5.56486118425249, 0,   !- X,Y,Z Vertex 3 {m}
  0, 5.56486118425249, 0;                 !- X,Y,Z Vertex 4 {m}

OS:Surface,
  {f1cb253b-348a-44aa-b807-3a7925ccfd04}, !- Handle
  Surface 16,                             !- Name
  Wall,                                   !- Surface Type
  ,                                       !- Construction Name
  {0978cc43-2d9d-4af5-b18b-ef9ae8040dc8}, !- Space Name
  Outdoors,                               !- Outside Boundary Condition
  ,                                       !- Outside Boundary Condition Object
  SunExposed,                             !- Sun Exposure
  WindExposed,                            !- Wind Exposure
  ,                                       !- View Factor to Ground
  ,                                       !- Number of Vertices
  0, 2.78243059212624, 1.39121529606312,  !- X,Y,Z Vertex 1 {m}
  0, 5.56486118425249, 0,                 !- X,Y,Z Vertex 2 {m}
  0, 0, 0;                                !- X,Y,Z Vertex 3 {m}

OS:Surface,
  {9e408360-2725-4466-b2dd-ccd822d275af}, !- Handle
  Surface 17,                             !- Name
  Wall,                                   !- Surface Type
  ,                                       !- Construction Name
  {0978cc43-2d9d-4af5-b18b-ef9ae8040dc8}, !- Space Name
  Outdoors,                               !- Outside Boundary Condition
  ,                                       !- Outside Boundary Condition Object
  SunExposed,                             !- Sun Exposure
  WindExposed,                            !- Wind Exposure
  ,                                       !- View Factor to Ground
  ,                                       !- Number of Vertices
  11.129722368505, 2.78243059212624, 1.39121529606312, !- X,Y,Z Vertex 1 {m}
  11.129722368505, 0, 0,                  !- X,Y,Z Vertex 2 {m}
  11.129722368505, 5.56486118425249, 0;   !- X,Y,Z Vertex 3 {m}

OS:Space,
  {0978cc43-2d9d-4af5-b18b-ef9ae8040dc8}, !- Handle
  unfinished attic space,                 !- Name
  ,                                       !- Space Type Name
  ,                                       !- Default Construction Set Name
  ,                                       !- Default Schedule Set Name
  -0,                                     !- Direction of Relative North {deg}
  0,                                      !- X Origin {m}
  0,                                      !- Y Origin {m}
  4.8768,                                 !- Z Origin {m}
  ,                                       !- Building Story Name
  {3a4cd4cf-7cea-4a2c-b997-728b9d4079f2}, !- Thermal Zone Name
  ,                                       !- Part of Total Floor Area
  ,                                       !- Design Specification Outdoor Air Object Name
  {29849c73-7942-4314-98d7-7b091d06134f}; !- Building Unit Name

OS:ThermalZone,
  {3a4cd4cf-7cea-4a2c-b997-728b9d4079f2}, !- Handle
  unfinished attic zone,                  !- Name
  ,                                       !- Multiplier
  ,                                       !- Ceiling Height {m}
  ,                                       !- Volume {m3}
  ,                                       !- Floor Area {m2}
  ,                                       !- Zone Inside Convection Algorithm
  ,                                       !- Zone Outside Convection Algorithm
  ,                                       !- Zone Conditioning Equipment List Name
  {84d8d912-40da-422e-b5fe-c8add9cea4b7}, !- Zone Air Inlet Port List
  {b305a200-47f7-4799-863b-f644c36a8260}, !- Zone Air Exhaust Port List
  {4d734d50-5b07-48e6-b34d-729ec221555b}, !- Zone Air Node Name
  ,                                       !- Zone Return Air Node Name
  ,                                       !- Primary Daylighting Control Name
  ,                                       !- Fraction of Zone Controlled by Primary Daylighting Control
  ,                                       !- Secondary Daylighting Control Name
  ,                                       !- Fraction of Zone Controlled by Secondary Daylighting Control
  ,                                       !- Illuminance Map Name
  ,                                       !- Group Rendering Name
  ,                                       !- Thermostat Name
  No;                                     !- Use Ideal Air Loads

OS:Node,
  {cc059dd3-0f00-4cf0-8b38-c535f7846814}, !- Handle
  Node 2,                                 !- Name
  {4d734d50-5b07-48e6-b34d-729ec221555b}, !- Inlet Port
  ;                                       !- Outlet Port

OS:Connection,
  {4d734d50-5b07-48e6-b34d-729ec221555b}, !- Handle
  {c320ffc3-4e3c-4352-ac1d-8552ee80f5ca}, !- Name
  {3a4cd4cf-7cea-4a2c-b997-728b9d4079f2}, !- Source Object