!- NOTE: Auto-generated from /test/osw_files/MF_8units_1story_SL_Inset.osw

OS:Version,
  {fc003c06-618b-4051-9b37-6b6f71b12672}, !- Handle
  2.2.0;                                  !- Version Identifier

OS:Building,
  {bf305633-c5a1-4881-9edf-ca5e1a8e1274}, !- Handle
  Building,                               !- Name
  ,                                       !- Building Sector Type
  ,                                       !- North Axis {deg}
  ,                                       !- Nominal Floor to Floor Height {m}
  ,                                       !- Space Type Name
  ,                                       !- Default Construction Set Name
  ,                                       !- Default Schedule Set Name
  1,                                      !- Standards Number of Stories
  1,                                      !- Standards Number of Above Ground Stories
  multifamily,                            !- Standards Building Type
  8;                                      !- Standards Number of Living Units

OS:YearDescription,
  {513d8dda-86cb-442a-b01c-1f7f0e0ac70e}; !- Handle

OS:SimulationControl,
  {2c487a4c-bac9-4ac5-b669-1e49d9da7c2b}, !- Handle
  ,                                       !- Do Zone Sizing Calculation
  ,                                       !- Do System Sizing Calculation
  ,                                       !- Do Plant Sizing Calculation
  No,                                     !- Run Simulation for Sizing Periods
  ;                                       !- Run Simulation for Weather File Run Periods

OS:Timestep,
  {4ebc9f1e-4707-402e-9844-67eb1ffbd522}, !- Handle
  6;                                      !- Number of Timesteps per Hour

OS:RunPeriod,
  {28df894d-6af9-4fb8-8f56-df1753344aa3}, !- Handle
  Run Period,                             !- Name
  1,                                      !- Begin Month
  1,                                      !- Begin Day of Month
  12,                                     !- End Month
  31,                                     !- End Day of Month
  ,                                       !- Use Weather File Holidays and Special Days
  ,                                       !- Use Weather File Daylight Saving Period
  ,                                       !- Apply Weekend Holiday Rule
  ,                                       !- Use Weather File Rain Indicators
  ,                                       !- Use Weather File Snow Indicators
  ;                                       !- Number of Times Runperiod to be Repeated

OS:Sizing:Parameters,
  {dde5af6f-7923-4600-a28a-7556673a0266}, !- Handle
  1.0,                                    !- Heating Sizing Factor
  1.0;                                    !- Cooling Sizing Factor

OS:ShadowCalculation,
  {ca758bea-4416-4626-9bba-3d8795c79bd6}, !- Handle
  20,                                     !- Calculation Frequency
  200;                                    !- Maximum Figures in Shadow Overlap Calculations

OS:SurfaceConvectionAlgorithm:Inside,
  {aaabfc36-718a-4ab0-b622-f186ebb45230}, !- Handle
  TARP;                                   !- Algorithm

OS:SurfaceConvectionAlgorithm:Outside,
  {9a0a9f6f-4bbd-4b12-a121-9492a1fcd7d6}, !- Handle
  DOE-2;                                  !- Algorithm

OS:HeatBalanceAlgorithm,
  {9d93e563-e1e0-46d7-9e39-d1c8aceb7212}, !- Handle
  ConductionTransferFunction,             !- Algorithm
  200;                                    !- Surface Temperature Upper Limit {C}

OS:ZoneCapacitanceMultiplier:ResearchSpecial,
  {6bfced16-b16f-47f6-8223-f7e267d75d19}, !- Handle
  ,                                       !- Temperature Capacity Multiplier
  15,                                     !- Humidity Capacity Multiplier
  ;                                       !- Carbon Dioxide Capacity Multiplier

OS:ThermalZone,
  {3bb09f20-3c3c-44b4-9d0c-d4e098232b03}, !- Handle
  living zone,                            !- Name
  ,                                       !- Multiplier
  ,                                       !- Ceiling Height {m}
  ,                                       !- Volume {m3}
  ,                                       !- Floor Area {m2}
  ,                                       !- Zone Inside Convection Algorithm
  ,                                       !- Zone Outside Convection Algorithm
  ,                                       !- Zone Conditioning Equipment List Name
  {71871549-e950-4ca3-bb7e-5a22616128c4}, !- Zone Air Inlet Port List
  {3f3de220-122d-40e4-bf4f-20760de2841a}, !- Zone Air Exhaust Port List
  {ff21adb5-b6da-4b8c-a2a4-5d0c49a8fdff}, !- Zone Air Node Name
  ,                                       !- Zone Return Air Node Name
  ,                                       !- Primary Daylighting Control Name
  ,                                       !- Fraction of Zone Controlled by Primary Daylighting Control
  ,                                       !- Secondary Daylighting Control Name
  ,                                       !- Fraction of Zone Controlled by Secondary Daylighting Control
  ,                                       !- Illuminance Map Name
  ,                                       !- Group Rendering Name
  ,                                       !- Thermostat Name
  No;                                     !- Use Ideal Air Loads

OS:Node,
  {52e8a9d9-6137-441e-bb9d-0525e5ee7166}, !- Handle
  Node 1,                                 !- Name
  {ff21adb5-b6da-4b8c-a2a4-5d0c49a8fdff}, !- Inlet Port
  ;                                       !- Outlet Port

OS:Connection,
  {ff21adb5-b6da-4b8c-a2a4-5d0c49a8fdff}, !- Handle
  {1111235d-e842-4798-89c5-343787d84c63}, !- Name
  {3bb09f20-3c3c-44b4-9d0c-d4e098232b03}, !- Source Object
  11,                                     !- Outlet Port
  {52e8a9d9-6137-441e-bb9d-0525e5ee7166}, !- Target Object
  2;                                      !- Inlet Port

OS:PortList,
  {71871549-e950-4ca3-bb7e-5a22616128c4}, !- Handle
  {cf96e9a1-2881-4117-99e2-d5cf2f3b6655}, !- Name
  {3bb09f20-3c3c-44b4-9d0c-d4e098232b03}; !- HVAC Component

OS:PortList,
  {3f3de220-122d-40e4-bf4f-20760de2841a}, !- Handle
  {927dc656-390c-4516-b157-41e538e13762}, !- Name
  {3bb09f20-3c3c-44b4-9d0c-d4e098232b03}; !- HVAC Component

OS:Sizing:Zone,
  {a6472c8b-c6b9-4ccb-bbcf-d1d76961ab4f}, !- Handle
  {3bb09f20-3c3c-44b4-9d0c-d4e098232b03}, !- Zone or ZoneList Name
  SupplyAirTemperature,                   !- Zone Cooling Design Supply Air Temperature Input Method
  14,                                     !- Zone Cooling Design Supply Air Temperature {C}
  11.11,                                  !- Zone Cooling Design Supply Air Temperature Difference {deltaC}
  SupplyAirTemperature,                   !- Zone Heating Design Supply Air Temperature Input Method
  40,                                     !- Zone Heating Design Supply Air Temperature {C}
  11.11,                                  !- Zone Heating Design Supply Air Temperature Difference {deltaC}
  0.0085,                                 !- Zone Cooling Design Supply Air Humidity Ratio {kg-H2O/kg-air}
  0.008,                                  !- Zone Heating Design Supply Air Humidity Ratio {kg-H2O/kg-air}
  ,                                       !- Zone Heating Sizing Factor
  ,                                       !- Zone Cooling Sizing Factor
  DesignDay,                              !- Cooling Design Air Flow Method
  ,                                       !- Cooling Design Air Flow Rate {m3/s}
  ,                                       !- Cooling Minimum Air Flow per Zone Floor Area {m3/s-m2}
  ,                                       !- Cooling Minimum Air Flow {m3/s}
  ,                                       !- Cooling Minimum Air Flow Fraction
  DesignDay,                              !- Heating Design Air Flow Method
  ,                                       !- Heating Design Air Flow Rate {m3/s}
  ,                                       !- Heating Maximum Air Flow per Zone Floor Area {m3/s-m2}
  ,                                       !- Heating Maximum Air Flow {m3/s}
  ,                                       !- Heating Maximum Air Flow Fraction
  ,                                       !- Design Zone Air Distribution Effectiveness in Cooling Mode
  ,                                       !- Design Zone Air Distribution Effectiveness in Heating Mode
  No,                                     !- Account for Dedicated Outdoor Air System
  NeutralSupplyAir,                       !- Dedicated Outdoor Air System Control Strategy
  autosize,                               !- Dedicated Outdoor Air Low Setpoint Temperature for Design {C}
  autosize;                               !- Dedicated Outdoor Air High Setpoint Temperature for Design {C}

OS:ZoneHVAC:EquipmentList,
  {3de5bb6f-79c6-42f8-95b6-6294c409376f}, !- Handle
  Zone HVAC Equipment List 1,             !- Name
  {3bb09f20-3c3c-44b4-9d0c-d4e098232b03}; !- Thermal Zone

OS:Space,
  {2faaeb87-cad5-43cc-a122-10bd61a4f4e8}, !- Handle
  living space,                           !- Name
  {a67325b1-bbd0-4b7a-b05e-b40e542a1873}, !- Space Type Name
  ,                                       !- Default Construction Set Name
  ,                                       !- Default Schedule Set Name
  ,                                       !- Direction of Relative North {deg}
  ,                                       !- X Origin {m}
  ,                                       !- Y Origin {m}
  ,                                       !- Z Origin {m}
  ,                                       !- Building Story Name
  {3bb09f20-3c3c-44b4-9d0c-d4e098232b03}, !- Thermal Zone Name
  ,                                       !- Part of Total Floor Area
  ,                                       !- Design Specification Outdoor Air Object Name
  {9d048dcf-3dd9-4e36-a3df-86bb91328aa5}; !- Building Unit Name

OS:Surface,
  {6e6352c7-984f-4400-8083-ebce0dd1e420}, !- Handle
  Surface 1,                              !- Name
  Floor,                                  !- Surface Type
  ,                                       !- Construction Name
  {2faaeb87-cad5-43cc-a122-10bd61a4f4e8}, !- Space Name
  Ground,                                 !- Outside Boundary Condition
  ,                                       !- Outside Boundary Condition Object
  NoSun,                                  !- Sun Exposure
  NoWind,                                 !- Wind Exposure
  ,                                       !- View Factor to Ground
  ,                                       !- Number of Vertices
  0, -13.1876643451371, 0,                !- X,Y,Z Vertex 1 {m}
  0, 0, 0,                                !- X,Y,Z Vertex 2 {m}
  6.59383217256854, 0, 0,                 !- X,Y,Z Vertex 3 {m}
  6.59383217256854, -11.3588643451371, 0, !- X,Y,Z Vertex 4 {m}
  4.76503217256854, -11.3588643451371, 0, !- X,Y,Z Vertex 5 {m}
  4.76503217256854, -13.1876643451371, 0; !- X,Y,Z Vertex 6 {m}

OS:Surface,
  {f35d4b62-5d60-4ad2-8b91-243164b1956a}, !- Handle
  Surface 2,                              !- Name
  Wall,                                   !- Surface Type
  ,                                       !- Construction Name
  {2faaeb87-cad5-43cc-a122-10bd61a4f4e8}, !- Space Name
  Outdoors,                               !- Outside Boundary Condition
  ,                                       !- Outside Boundary Condition Object
  SunExposed,                             !- Sun Exposure
  WindExposed,                            !- Wind Exposure
  ,                                       !- View Factor to Ground
  ,                                       !- Number of Vertices
  0, 0, 2.4384,                           !- X,Y,Z Vertex 1 {m}
  0, 0, 0,                                !- X,Y,Z Vertex 2 {m}
  0, -13.1876643451371, 0,                !- X,Y,Z Vertex 3 {m}
  0, -13.1876643451371, 2.4384;           !- X,Y,Z Vertex 4 {m}

OS:Surface,
  {530308b5-65a8-4330-94ab-0cd2b18a5fd9}, !- Handle
  Surface 3,                              !- Name
  Wall,                                   !- Surface Type
  ,                                       !- Construction Name
  {2faaeb87-cad5-43cc-a122-10bd61a4f4e8}, !- Space Name
  Adiabatic,                              !- Outside Boundary Condition
  ,                                       !- Outside Boundary Condition Object
  NoSun,                                  !- Sun Exposure
  NoWind,                                 !- Wind Exposure
  ,                                       !- View Factor to Ground
  ,                                       !- Number of Vertices
  6.59383217256854, 0, 2.4384,            !- X,Y,Z Vertex 1 {m}
  6.59383217256854, 0, 0,                 !- X,Y,Z Vertex 2 {m}
  0, 0, 0,                                !- X,Y,Z Vertex 3 {m}
  0, 0, 2.4384;                           !- X,Y,Z Vertex 4 {m}

OS:Surface,
  {b90b8060-a5a6-4f82-8957-7a9338fea35a}, !- Handle
  Surface 4,                              !- Name
  Wall,                                   !- Surface Type
  ,                                       !- Construction Name
  {2faaeb87-cad5-43cc-a122-10bd61a4f4e8}, !- Space Name
  Surface,                                !- Outside Boundary Condition
  {9f2126f3-25ef-44fd-9efd-3d98398ee541}, !- Outside Boundary Condition Object
  NoSun,                                  !- Sun Exposure
  NoWind,                                 !- Wind Exposure
  ,                                       !- View Factor to Ground
  ,                                       !- Number of Vertices
  6.59383217256854, -11.3588643451371, 2.4384, !- X,Y,Z Vertex 1 {m}
  6.59383217256854, -11.3588643451371, 0, !- X,Y,Z Vertex 2 {m}
  6.59383217256854, 0, 0,                 !- X,Y,Z Vertex 3 {m}
  6.59383217256854, 0, 2.4384;            !- X,Y,Z Vertex 4 {m}

OS:Surface,
  {903551a2-e52c-467f-aa79-e0c68f7fd722}, !- Handle
  Surface 5,                              !- Name
  Wall,                                   !- Surface Type
  ,                                       !- Construction Name
  {2faaeb87-cad5-43cc-a122-10bd61a4f4e8}, !- Space Name
  Outdoors,                               !- Outside Boundary Condition
  ,                                       !- Outside Boundary Condition Object
  SunExposed,                             !- Sun Exposure
  WindExposed,                            !- Wind Exposure
  ,                                       !- View Factor to Ground
  ,                                       !- Number of Vertices
  4.76503217256854, -11.3588643451371, 2.4384, !- X,Y,Z Vertex 1 {m}
  4.76503217256854, -11.3588643451371, 0, !- X,Y,Z Vertex 2 {m}
  6.59383217256854, -11.3588643451371, 0, !- X,Y,Z Vertex 3 {m}
  6.59383217256854, -11.3588643451371, 2.4384; !- X,Y,Z Vertex 4 {m}

OS:Surface,
  {f6d2eb63-4f42-4433-87e2-3d8c63c34d50}, !- Handle
  Surface 6,                              !- Name
  Wall,                                   !- Surface Type
  ,                                       !- Construction Name
  {2faaeb87-cad5-43cc-a122-10bd61a4f4e8}, !- Space Name
  Outdoors,                               !- Outside Boundary Condition
  ,                                       !- Outside Boundary Condition Object
  SunExposed,                             !- Sun Exposure
  WindExposed,                            !- Wind Exposure
  ,                                       !- View Factor to Ground
  ,                                       !- Number of Vertices
  4.76503217256854, -13.1876643451371, 2.4384, !- X,Y,Z Vertex 1 {m}
  4.76503217256854, -13.1876643451371, 0, !- X,Y,Z Vertex 2 {m}
  4.76503217256854, -11.3588643451371, 0, !- X,Y,Z Vertex 3 {m}
  4.76503217256854, -11.3588643451371, 2.4384; !- X,Y,Z Vertex 4 {m}

OS:Surface,
  {068da917-8b3c-4a7d-95af-c92a9602d9e4}, !- Handle
  Surface 7,                              !- Name
  Wall,                                   !- Surface Type
  ,                                       !- Construction Name
  {2faaeb87-cad5-43cc-a122-10bd61a4f4e8}, !- Space Name
  Outdoors,                               !- Outside Boundary Condition
  ,                                       !- Outside Boundary Condition Object
  SunExposed,                             !- Sun Exposure
  WindExposed,                            !- Wind Exposure
  ,                                       !- View Factor to Ground
  ,                                       !- Number of Vertices
  0, -13.1876643451371, 2.4384,           !- X,Y,Z Vertex 1 {m}
  0, -13.1876643451371, 0,                !- X,Y,Z Vertex 2 {m}
  4.76503217256854, -13.1876643451371, 0, !- X,Y,Z Vertex 3 {m}
  4.76503217256854, -13.1876643451371, 2.4384; !- X,Y,Z Vertex 4 {m}

OS:Surface,
  {c9817507-a36e-432c-906d-1d114cc80b9b}, !- Handle
  Surface 8,                              !- Name
  RoofCeiling,                            !- Surface Type
  ,                                       !- Construction Name
  {2faaeb87-cad5-43cc-a122-10bd61a4f4e8}, !- Space Name
  Outdoors,                               !- Outside Boundary Condition
  ,                                       !- Outside Boundary Condition Object
  SunExposed,                             !- Sun Exposure
  WindExposed,                            !- Wind Exposure
  ,                                       !- View Factor to Ground
  ,                                       !- Number of Vertices
  4.76503217256854, -13.1876643451371, 2.4384, !- X,Y,Z Vertex 1 {m}
  4.76503217256854, -11.3588643451371, 2.4384, !- X,Y,Z Vertex 2 {m}
  6.59383217256854, -11.3588643451371, 2.4384, !- X,Y,Z Vertex 3 {m}
  6.59383217256854, 0, 2.4384,            !- X,Y,Z Vertex 4 {m}
  0, 0, 2.4384,                           !- X,Y,Z Vertex 5 {m}
  0, -13.1876643451371, 2.4384;           !- X,Y,Z Vertex 6 {m}

OS:SpaceType,
  {a67325b1-bbd0-4b7a-b05e-b40e542a1873}, !- Handle
  Space Type 1,                           !- Name
  ,                                       !- Default Construction Set Name
  ,                                       !- Default Schedule Set Name
  ,                                       !- Group Rendering Name
  ,                                       !- Design Specification Outdoor Air Object Name
  ,                                       !- Standards Building Type
  living;                                 !- Standards Space Type

OS:ThermalZone,
  {17f6d381-c68f-4ba1-b086-347fda70c3d5}, !- Handle
  living zone|unit 2,                     !- Name
  ,                                       !- Multiplier
  ,                                       !- Ceiling Height {m}
  ,                                       !- Volume {m3}
  ,                                       !- Floor Area {m2}
  ,                                       !- Zone Inside Convection Algorithm
  ,                                       !- Zone Outside Convection Algorithm
  ,                                       !- Zone Conditioning Equipment List Name
  {222d3a7b-1edb-421f-8d08-ec47c166e976}, !- Zone Air Inlet Port List
  {d386e308-3470-4bbe-ae1a-ec2de062e994}, !- Zone Air Exhaust Port List
  {7ba4ee84-c03f-41ca-a53b-df4bb694ca0f}, !- Zone Air Node Name
  ,                                       !- Zone Return Air Node Name
  ,                                       !- Primary Daylighting Control Name
  ,                                       !- Fraction of Zone Controlled by Primary Daylighting Control
  ,                                       !- Secondary Daylighting Control Name
  ,                                       !- Fraction of Zone Controlled by Secondary Daylighting Control
  ,                                       !- Illuminance Map Name
  ,                                       !- Group Rendering Name
  ,                                       !- Thermostat Name
  No;                                     !- Use Ideal Air Loads

OS:Node,
  {493984ac-e6f0-44e1-9295-fef77129540c}, !- Handle
  Node 2,                                 !- Name
  {7ba4ee84-c03f-41ca-a53b-df4bb694ca0f}, !- Inlet Port
  ;                                       !- Outlet Port

OS:Connection,
  {7ba4ee84-c03f-41ca-a53b-df4bb694ca0f}, !- Handle
  {3323425b-7a9b-420c-a40f-d7d8a82ecd30}, !- Name
  {17f6d381-c68f-4ba1-b086-347fda70c3d5}, !- Source Object
  11,                                     !- Outlet Port
  {493984ac-e6f0-44e1-9295-fef77129540c}, !- Target Object
  2;                                      !- Inlet Port

OS:PortList,
  {222d3a7b-1edb-421f-8d08-ec47c166e976}, !- Handle
  {a9385cdb-00aa-4703-a688-a588b8c2c0f9}, !- Name
  {17f6d381-c68f-4ba1-b086-347fda70c3d5}; !- HVAC Component

OS:PortList,
  {d386e308-3470-4bbe-ae1a-ec2de062e994}, !- Handle
  {53682351-571e-4924-bd99-e918d1f27f6c}, !- Name
  {17f6d381-c68f-4ba1-b086-347fda70c3d5}; !- HVAC Component

OS:Sizing:Zone,
  {0b258b4f-824c-45af-84d7-7d7bc489e59b}, !- Handle
  {17f6d381-c68f-4ba1-b086-347fda70c3d5}, !- Zone or ZoneList Name
  SupplyAirTemperature,                   !- Zone Cooling Design Supply Air Temperature Input Method
  14,                                     !- Zone Cooling Design Supply Air Temperature {C}
  11.11,                                  !- Zone Cooling Design Supply Air Temperature Difference {deltaC}
  SupplyAirTemperature,                   !- Zone Heating Design Supply Air Temperature Input Method
  40,                                     !- Zone Heating Design Supply Air Temperature {C}
  11.11,                                  !- Zone Heating Design Supply Air Temperature Difference {deltaC}
  0.0085,                                 !- Zone Cooling Design Supply Air Humidity Ratio {kg-H2O/kg-air}
  0.008,                                  !- Zone Heating Design Supply Air Humidity Ratio {kg-H2O/kg-air}
  ,                                       !- Zone Heating Sizing Factor
  ,                                       !- Zone Cooling Sizing Factor
  DesignDay,                              !- Cooling Design Air Flow Method
  ,                                       !- Cooling Design Air Flow Rate {m3/s}
  ,                                       !- Cooling Minimum Air Flow per Zone Floor Area {m3/s-m2}
  ,                                       !- Cooling Minimum Air Flow {m3/s}
  ,                                       !- Cooling Minimum Air Flow Fraction
  DesignDay,                              !- Heating Design Air Flow Method
  ,                                       !- Heating Design Air Flow Rate {m3/s}
  ,                                       !- Heating Maximum Air Flow per Zone Floor Area {m3/s-m2}
  ,                                       !- Heating Maximum Air Flow {m3/s}
  ,                                       !- Heating Maximum Air Flow Fraction
  ,                                       !- Design Zone Air Distribution Effectiveness in Cooling Mode
  ,                                       !- Design Zone Air Distribution Effectiveness in Heating Mode
  No,                                     !- Account for Dedicated Outdoor Air System
  NeutralSupplyAir,                       !- Dedicated Outdoor Air System Control Strategy
  autosize,                               !- Dedicated Outdoor Air Low Setpoint Temperature for Design {C}
  autosize;                               !- Dedicated Outdoor Air High Setpoint Temperature for Design {C}

OS:ZoneHVAC:EquipmentList,
  {dd497b58-62af-4315-be26-4964fd0e9d94}, !- Handle
  Zone HVAC Equipment List 2,             !- Name
  {17f6d381-c68f-4ba1-b086-347fda70c3d5}; !- Thermal Zone

OS:Space,
  {358a7083-c89a-411a-92d0-99834f877ae9}, !- Handle
  living space|unit 2,                    !- Name
  {a67325b1-bbd0-4b7a-b05e-b40e542a1873}, !- Space Type Name
  ,                                       !- Default Construction Set Name
  ,                                       !- Default Schedule Set Name
  ,                                       !- Direction of Relative North {deg}
  ,                                       !- X Origin {m}
  ,                                       !- Y Origin {m}
  ,                                       !- Z Origin {m}
  ,                                       !- Building Story Name
  {17f6d381-c68f-4ba1-b086-347fda70c3d5}, !- Thermal Zone Name
  ,                                       !- Part of Total Floor Area
  ,                                       !- Design Specification Outdoor Air Object Name
  {4523a80e-139e-4eb3-9984-005bb9888616}; !- Building Unit Name

OS:Surface,
  {9e71dca7-420b-4a15-8e70-6a1fb0ca2a43}, !- Handle
  Surface 9,                              !- Name
  Floor,                                  !- Surface Type
  ,                                       !- Construction Name
  {358a7083-c89a-411a-92d0-99834f877ae9}, !- Space Name
  Ground,                                 !- Outside Boundary Condition
  ,                                       !- Outside Boundary Condition Object
  NoSun,                                  !- Sun Exposure
  NoWind,                                 !- Wind Exposure
  ,                                       !- View Factor to Ground
  ,                                       !- Number of Vertices
  0, 14.4068643451371, 0,                 !- X,Y,Z Vertex 1 {m}
  1.8288, 14.4068643451371, 0,            !- X,Y,Z Vertex 2 {m}
  1.8288, 16.2356643451371, 0,            !- X,Y,Z Vertex 3 {m}
  6.59383217256854, 16.2356643451371, 0,  !- X,Y,Z Vertex 4 {m}
  6.59383217256854, 3.048, 0,             !- X,Y,Z Vertex 5 {m}
  0, 3.048, 0;                            !- X,Y,Z Vertex 6 {m}

OS:Surface,
  {ef76aed3-67e9-48ee-80d7-92b5eb09ccef}, !- Handle
  Surface 10,                             !- Name
  Wall,                                   !- Surface Type
  ,                                       !- Construction Name
  {358a7083-c89a-411a-92d0-99834f877ae9}, !- Space Name
  Outdoors,                               !- Outside Boundary Condition
  ,                                       !- Outside Boundary Condition Object
  SunExposed,                             !- Sun Exposure
  WindExposed,                            !- Wind Exposure
  ,                                       !- View Factor to Ground
  ,                                       !- Number of Vertices
  1.8288, 14.4068643451371, 2.4384,       !- X,Y,Z Vertex 1 {m}
  1.8288, 14.4068643451371, 0,            !- X,Y,Z Vertex 2 {m}
  0, 14.4068643451371, 0,                 !- X,Y,Z Vertex 3 {m}
  0, 14.4068643451371, 2.4384;            !- X,Y,Z Vertex 4 {m}

OS:Surface,
  {a1c34d4d-96f3-4fb2-88a8-004555b18b7f}, !- Handle
  Surface 11,                             !- Name
  Wall,                                   !- Surface Type
  ,                                       !- Construction Name
  {358a7083-c89a-411a-92d0-99834f877ae9}, !- Space Name
  Outdoors,                               !- Outside Boundary Condition
  ,                                       !- Outside Boundary Condition Object
  SunExposed,                             !- Sun Exposure
  WindExposed,                            !- Wind Exposure
  ,                                       !- View Factor to Ground
  ,                                       !- Number of Vertices
  1.8288, 16.2356643451371, 2.4384,       !- X,Y,Z Vertex 1 {m}
  1.8288, 16.2356643451371, 0,            !- X,Y,Z Vertex 2 {m}
  1.8288, 14.4068643451371, 0,            !- X,Y,Z Vertex 3 {m}
  1.8288, 14.4068643451371, 2.4384;       !- X,Y,Z Vertex 4 {m}

OS:Surface,
  {16fb1549-b1a8-4092-b594-d10bbc331db8}, !- Handle
  Surface 12,                             !- Name
  Wall,                                   !- Surface Type
  ,                                       !- Construction Name
  {358a7083-c89a-411a-92d0-99834f877ae9}, !- Space Name
  Outdoors,                               !- Outside Boundary Condition
  ,                                       !- Outside Boundary Condition Object
  SunExposed,                             !- Sun Exposure
  WindExposed,                            !- Wind Exposure
  ,                                       !- View Factor to Ground
  ,                                       !- Number of Vertices
  6.59383217256854, 16.2356643451371, 2.4384, !- X,Y,Z Vertex 1 {m}
  6.59383217256854, 16.2356643451371, 0,  !- X,Y,Z Vertex 2 {m}
  1.8288, 16.2356643451371, 0,            !- X,Y,Z Vertex 3 {m}
  1.8288, 16.2356643451371, 2.4384;       !- X,Y,Z Vertex 4 {m}

OS:Surface,
  {fe01f956-8aef-4f66-ac3c-6b4383fc779d}, !- Handle
  Surface 13,                             !- Name
  Wall,                                   !- Surface Type
  ,                                       !- Construction Name
  {358a7083-c89a-411a-92d0-99834f877ae9}, !- Space Name
  Surface,                                !- Outside Boundary Condition
  {749ccb59-64bf-4c12-82a3-10cefad32728}, !- Outside Boundary Condition Object
  NoSun,                                  !- Sun Exposure
  NoWind,                                 !- Wind Exposure
  ,                                       !- View Factor to Ground
  ,                                       !- Number of Vertices
  6.59383217256854, 3.048, 2.4384,        !- X,Y,Z Vertex 1 {m}
  6.59383217256854, 3.048, 0,             !- X,Y,Z Vertex 2 {m}
  6.59383217256854, 14.4068643451371, 0,  !- X,Y,Z Vertex 3 {m}
  6.59383217256854, 14.4068643451371, 2.4384; !- X,Y,Z Vertex 4 {m}

OS:Surface,
  {56474cd3-be1a-4c23-877c-950478779ecc}, !- Handle
  Surface 14,                             !- Name
  Wall,                                   !- Surface Type
  ,                                       !- Construction Name
  {358a7083-c89a-411a-92d0-99834f877ae9}, !- Space Name
  Adiabatic,                              !- Outside Boundary Condition
  ,                                       !- Outside Boundary Condition Object
  NoSun,                                  !- Sun Exposure
  NoWind,                                 !- Wind Exposure
  ,                                       !- View Factor to Ground
  ,                                       !- Number of Vertices