!- NOTE: Auto-generated from /test/osw_files/SFA_4units_1story_SL_UA_Offset.osw

OS:Version,
  {fc003c06-618b-4051-9b37-6b6f71b12672}, !- Handle
  2.2.0;                                  !- Version Identifier

OS:Building,
  {bf305633-c5a1-4881-9edf-ca5e1a8e1274}, !- Handle
  Building,                               !- Name
  ,                                       !- Building Sector Type
  ,                                       !- North Axis {deg}
  ,                                       !- Nominal Floor to Floor Height {m}
  ,                                       !- Space Type Name
  ,                                       !- Default Construction Set Name
  ,                                       !- Default Schedule Set Name
  1,                                      !- Standards Number of Stories
  1,                                      !- Standards Number of Above Ground Stories
  singlefamilyttached,                    !- Standards Building Type
  4;                                      !- Standards Number of Living Units

OS:YearDescription,
  {513d8dda-86cb-442a-b01c-1f7f0e0ac70e}; !- Handle

OS:SimulationControl,
  {2c487a4c-bac9-4ac5-b669-1e49d9da7c2b}, !- Handle
  ,                                       !- Do Zone Sizing Calculation
  ,                                       !- Do System Sizing Calculation
  ,                                       !- Do Plant Sizing Calculation
  No,                                     !- Run Simulation for Sizing Periods
  ;                                       !- Run Simulation for Weather File Run Periods

OS:Timestep,
  {4ebc9f1e-4707-402e-9844-67eb1ffbd522}, !- Handle
  6;                                      !- Number of Timesteps per Hour

OS:RunPeriod,
  {28df894d-6af9-4fb8-8f56-df1753344aa3}, !- Handle
  Run Period,                             !- Name
  1,                                      !- Begin Month
  1,                                      !- Begin Day of Month
  12,                                     !- End Month
  31,                                     !- End Day of Month
  ,                                       !- Use Weather File Holidays and Special Days
  ,                                       !- Use Weather File Daylight Saving Period
  ,                                       !- Apply Weekend Holiday Rule
  ,                                       !- Use Weather File Rain Indicators
  ,                                       !- Use Weather File Snow Indicators
  ;                                       !- Number of Times Runperiod to be Repeated

OS:Sizing:Parameters,
  {dde5af6f-7923-4600-a28a-7556673a0266}, !- Handle
  1.0,                                    !- Heating Sizing Factor
  1.0;                                    !- Cooling Sizing Factor

OS:ShadowCalculation,
  {ca758bea-4416-4626-9bba-3d8795c79bd6}, !- Handle
  20,                                     !- Calculation Frequency
  200;                                    !- Maximum Figures in Shadow Overlap Calculations

OS:SurfaceConvectionAlgorithm:Inside,
  {aaabfc36-718a-4ab0-b622-f186ebb45230}, !- Handle
  TARP;                                   !- Algorithm

OS:SurfaceConvectionAlgorithm:Outside,
  {9a0a9f6f-4bbd-4b12-a121-9492a1fcd7d6}, !- Handle
  DOE-2;                                  !- Algorithm

OS:HeatBalanceAlgorithm,
  {9d93e563-e1e0-46d7-9e39-d1c8aceb7212}, !- Handle
  ConductionTransferFunction,             !- Algorithm
  200;                                    !- Surface Temperature Upper Limit {C}

OS:ZoneCapacitanceMultiplier:ResearchSpecial,
  {6bfced16-b16f-47f6-8223-f7e267d75d19}, !- Handle
  ,                                       !- Temperature Capacity Multiplier
  15,                                     !- Humidity Capacity Multiplier
  ;                                       !- Carbon Dioxide Capacity Multiplier

OS:ThermalZone,
  {9af9091f-75f5-453a-be3b-47c8e097d796}, !- Handle
  living zone,                            !- Name
  ,                                       !- Multiplier
  ,                                       !- Ceiling Height {m}
  ,                                       !- Volume {m3}
  ,                                       !- Floor Area {m2}
  ,                                       !- Zone Inside Convection Algorithm
  ,                                       !- Zone Outside Convection Algorithm
  ,                                       !- Zone Conditioning Equipment List Name
  {c9658f9d-95a0-4ced-8921-58cc80c7b558}, !- Zone Air Inlet Port List
  {874d9a90-9f5f-4f5e-b74e-9d1cb9f213b0}, !- Zone Air Exhaust Port List
  {0bb5362f-523e-4e88-bed5-d3a2d245277c}, !- Zone Air Node Name
  ,                                       !- Zone Return Air Node Name
  ,                                       !- Primary Daylighting Control Name
  ,                                       !- Fraction of Zone Controlled by Primary Daylighting Control
  ,                                       !- Secondary Daylighting Control Name
  ,                                       !- Fraction of Zone Controlled by Secondary Daylighting Control
  ,                                       !- Illuminance Map Name
  ,                                       !- Group Rendering Name
  ,                                       !- Thermostat Name
  No;                                     !- Use Ideal Air Loads

OS:Node,
  {a337233e-faa0-404a-af03-d48777c4e3e7}, !- Handle
  Node 1,                                 !- Name
  {0bb5362f-523e-4e88-bed5-d3a2d245277c}, !- Inlet Port
  ;                                       !- Outlet Port

OS:Connection,
  {0bb5362f-523e-4e88-bed5-d3a2d245277c}, !- Handle
  {94d2cc40-98dd-47ab-b73c-2593189dd07b}, !- Name
  {9af9091f-75f5-453a-be3b-47c8e097d796}, !- Source Object
  11,                                     !- Outlet Port
  {a337233e-faa0-404a-af03-d48777c4e3e7}, !- Target Object
  2;                                      !- Inlet Port

OS:PortList,
  {c9658f9d-95a0-4ced-8921-58cc80c7b558}, !- Handle
  {d4c3d502-613d-40e4-bae3-a6769d85d527}, !- Name
  {9af9091f-75f5-453a-be3b-47c8e097d796}; !- HVAC Component

OS:PortList,
  {874d9a90-9f5f-4f5e-b74e-9d1cb9f213b0}, !- Handle
  {c6154283-6935-43d9-9e44-70ffee34ac56}, !- Name
  {9af9091f-75f5-453a-be3b-47c8e097d796}; !- HVAC Component

OS:Sizing:Zone,
  {89506ff4-e1df-45ed-83fb-9c04a2676a77}, !- Handle
  {9af9091f-75f5-453a-be3b-47c8e097d796}, !- Zone or ZoneList Name
  SupplyAirTemperature,                   !- Zone Cooling Design Supply Air Temperature Input Method
  14,                                     !- Zone Cooling Design Supply Air Temperature {C}
  11.11,                                  !- Zone Cooling Design Supply Air Temperature Difference {deltaC}
  SupplyAirTemperature,                   !- Zone Heating Design Supply Air Temperature Input Method
  40,                                     !- Zone Heating Design Supply Air Temperature {C}
  11.11,                                  !- Zone Heating Design Supply Air Temperature Difference {deltaC}
  0.0085,                                 !- Zone Cooling Design Supply Air Humidity Ratio {kg-H2O/kg-air}
  0.008,                                  !- Zone Heating Design Supply Air Humidity Ratio {kg-H2O/kg-air}
  ,                                       !- Zone Heating Sizing Factor
  ,                                       !- Zone Cooling Sizing Factor
  DesignDay,                              !- Cooling Design Air Flow Method
  ,                                       !- Cooling Design Air Flow Rate {m3/s}
  ,                                       !- Cooling Minimum Air Flow per Zone Floor Area {m3/s-m2}
  ,                                       !- Cooling Minimum Air Flow {m3/s}
  ,                                       !- Cooling Minimum Air Flow Fraction
  DesignDay,                              !- Heating Design Air Flow Method
  ,                                       !- Heating Design Air Flow Rate {m3/s}
  ,                                       !- Heating Maximum Air Flow per Zone Floor Area {m3/s-m2}
  ,                                       !- Heating Maximum Air Flow {m3/s}
  ,                                       !- Heating Maximum Air Flow Fraction
  ,                                       !- Design Zone Air Distribution Effectiveness in Cooling Mode
  ,                                       !- Design Zone Air Distribution Effectiveness in Heating Mode
  No,                                     !- Account for Dedicated Outdoor Air System
  NeutralSupplyAir,                       !- Dedicated Outdoor Air System Control Strategy
  autosize,                               !- Dedicated Outdoor Air Low Setpoint Temperature for Design {C}
  autosize;                               !- Dedicated Outdoor Air High Setpoint Temperature for Design {C}

OS:ZoneHVAC:EquipmentList,
  {b94f76a0-31a9-4358-aaa9-1f49870c2d49}, !- Handle
  Zone HVAC Equipment List 1,             !- Name
  {9af9091f-75f5-453a-be3b-47c8e097d796}; !- Thermal Zone

OS:Space,
  {f54da143-05e2-4628-85f2-97dbca9d4ba2}, !- Handle
  living space,                           !- Name
  {23673902-e399-476c-9207-c1c19c71dc7f}, !- Space Type Name
  ,                                       !- Default Construction Set Name
  ,                                       !- Default Schedule Set Name
  ,                                       !- Direction of Relative North {deg}
  ,                                       !- X Origin {m}
  ,                                       !- Y Origin {m}
  ,                                       !- Z Origin {m}
  ,                                       !- Building Story Name
  {9af9091f-75f5-453a-be3b-47c8e097d796}, !- Thermal Zone Name
  ,                                       !- Part of Total Floor Area
  ,                                       !- Design Specification Outdoor Air Object Name
  {f5501aea-9e22-4d03-b791-07036825c559}; !- Building Unit Name

OS:Surface,
  {bd33f027-1f27-4465-9056-be501b990c3d}, !- Handle
  Surface 1,                              !- Name
  Floor,                                  !- Surface Type
  ,                                       !- Construction Name
  {f54da143-05e2-4628-85f2-97dbca9d4ba2}, !- Space Name
  Ground,                                 !- Outside Boundary Condition
  ,                                       !- Outside Boundary Condition Object
  NoSun,                                  !- Sun Exposure
  NoWind,                                 !- Wind Exposure
  ,                                       !- View Factor to Ground
  ,                                       !- Number of Vertices
  0, -12.9315688143396, 0,                !- X,Y,Z Vertex 1 {m}
  0, 0, 0,                                !- X,Y,Z Vertex 2 {m}
  6.46578440716979, 0, 0,                 !- X,Y,Z Vertex 3 {m}
  6.46578440716979, -12.9315688143396, 0; !- X,Y,Z Vertex 4 {m}

OS:Surface,
  {58a7bcaa-642c-4430-b52f-2f7f0abdf3fd}, !- Handle
  Surface 2,                              !- Name
  Wall,                                   !- Surface Type
  ,                                       !- Construction Name
  {f54da143-05e2-4628-85f2-97dbca9d4ba2}, !- Space Name
  Outdoors,                               !- Outside Boundary Condition
  ,                                       !- Outside Boundary Condition Object
  SunExposed,                             !- Sun Exposure
  WindExposed,                            !- Wind Exposure
  ,                                       !- View Factor to Ground
  ,                                       !- Number of Vertices
  0, 0, 2.4384,                           !- X,Y,Z Vertex 1 {m}
  0, 0, 0,                                !- X,Y,Z Vertex 2 {m}
  0, -12.9315688143396, 0,                !- X,Y,Z Vertex 3 {m}
  0, -12.9315688143396, 2.4384;           !- X,Y,Z Vertex 4 {m}

OS:Surface,
  {c3e7b10f-2482-49c0-8e89-07bc5235b8c6}, !- Handle
  Surface 3,                              !- Name
  Wall,                                   !- Surface Type
  ,                                       !- Construction Name
  {f54da143-05e2-4628-85f2-97dbca9d4ba2}, !- Space Name
  Outdoors,                               !- Outside Boundary Condition
  ,                                       !- Outside Boundary Condition Object
  SunExposed,                             !- Sun Exposure
  WindExposed,                            !- Wind Exposure
  ,                                       !- View Factor to Ground
  ,                                       !- Number of Vertices
  6.46578440716979, 0, 2.4384,            !- X,Y,Z Vertex 1 {m}
  6.46578440716979, 0, 0,                 !- X,Y,Z Vertex 2 {m}
  0, 0, 0,                                !- X,Y,Z Vertex 3 {m}
  0, 0, 2.4384;                           !- X,Y,Z Vertex 4 {m}

OS:Surface,
  {66ee2d27-5249-497a-a286-b2b4fd4e6ce0}, !- Handle
  Surface 4,                              !- Name
  Wall,                                   !- Surface Type
  ,                                       !- Construction Name
  {f54da143-05e2-4628-85f2-97dbca9d4ba2}, !- Space Name
  Surface,                                !- Outside Boundary Condition
  {260af2c3-ca2c-4004-a37f-72d05783a3ce}, !- Outside Boundary Condition Object
  NoSun,                                  !- Sun Exposure
  NoWind,                                 !- Wind Exposure
  ,                                       !- View Factor to Ground
  ,                                       !- Number of Vertices
  6.46578440716979, -11.1027688143396, 2.4384, !- X,Y,Z Vertex 1 {m}
  6.46578440716979, -11.1027688143396, 0, !- X,Y,Z Vertex 2 {m}
  6.46578440716979, 0, 0,                 !- X,Y,Z Vertex 3 {m}
  6.46578440716979, 0, 2.4384;            !- X,Y,Z Vertex 4 {m}

OS:Surface,
  {e107d12c-769f-48f0-b177-34eb302fd9ff}, !- Handle
  Surface 5,                              !- Name
  Wall,                                   !- Surface Type
  ,                                       !- Construction Name
  {f54da143-05e2-4628-85f2-97dbca9d4ba2}, !- Space Name
  Outdoors,                               !- Outside Boundary Condition
  ,                                       !- Outside Boundary Condition Object
  SunExposed,                             !- Sun Exposure
  WindExposed,                            !- Wind Exposure
  ,                                       !- View Factor to Ground
  ,                                       !- Number of Vertices
  0, -12.9315688143396, 2.4384,           !- X,Y,Z Vertex 1 {m}
  0, -12.9315688143396, 0,                !- X,Y,Z Vertex 2 {m}
  6.46578440716979, -12.9315688143396, 0, !- X,Y,Z Vertex 3 {m}
  6.46578440716979, -12.9315688143396, 2.4384; !- X,Y,Z Vertex 4 {m}

OS:Surface,
  {9f33f429-dabc-48b1-b289-46f94b36f4e2}, !- Handle
  Surface 6,                              !- Name
  RoofCeiling,                            !- Surface Type
  ,                                       !- Construction Name
  {f54da143-05e2-4628-85f2-97dbca9d4ba2}, !- Space Name
  Surface,                                !- Outside Boundary Condition
  {fe4d6c15-e909-4b61-9534-5e3864b963de}, !- Outside Boundary Condition Object
  NoSun,                                  !- Sun Exposure
  NoWind,                                 !- Wind Exposure
  ,                                       !- View Factor to Ground
  ,                                       !- Number of Vertices
  6.46578440716979, -12.9315688143396, 2.4384, !- X,Y,Z Vertex 1 {m}
  6.46578440716979, 0, 2.4384,            !- X,Y,Z Vertex 2 {m}
  0, 0, 2.4384,                           !- X,Y,Z Vertex 3 {m}
  0, -12.9315688143396, 2.4384;           !- X,Y,Z Vertex 4 {m}

OS:SpaceType,
  {23673902-e399-476c-9207-c1c19c71dc7f}, !- Handle
  Space Type 1,                           !- Name
  ,                                       !- Default Construction Set Name
  ,                                       !- Default Schedule Set Name
  ,                                       !- Group Rendering Name
  ,                                       !- Design Specification Outdoor Air Object Name
  ,                                       !- Standards Building Type
  living;                                 !- Standards Space Type

OS:Surface,
  {fe4d6c15-e909-4b61-9534-5e3864b963de}, !- Handle
  Surface 7,                              !- Name
  Floor,                                  !- Surface Type
  ,                                       !- Construction Name
  {f9d47b5e-76ba-4ab2-942c-bba30ba05eec}, !- Space Name
  Surface,                                !- Outside Boundary Condition
  {9f33f429-dabc-48b1-b289-46f94b36f4e2}, !- Outside Boundary Condition Object
  NoSun,                                  !- Sun Exposure
  NoWind,                                 !- Wind Exposure
  ,                                       !- View Factor to Ground
  ,                                       !- Number of Vertices
  0, -12.9315688143396, 2.4384,           !- X,Y,Z Vertex 1 {m}
  0, 0, 2.4384,                           !- X,Y,Z Vertex 2 {m}
  6.46578440716979, 0, 2.4384,            !- X,Y,Z Vertex 3 {m}
  6.46578440716979, -12.9315688143396, 2.4384; !- X,Y,Z Vertex 4 {m}

OS:Surface,
  {3463c1b3-a33e-4b41-9995-30ccca888fe6}, !- Handle
  Surface 8,                              !- Name
  RoofCeiling,                            !- Surface Type
  ,                                       !- Construction Name
  {f9d47b5e-76ba-4ab2-942c-bba30ba05eec}, !- Space Name
  Outdoors,                               !- Outside Boundary Condition
  ,                                       !- Outside Boundary Condition Object
  SunExposed,                             !- Sun Exposure
  WindExposed,                            !- Wind Exposure
  ,                                       !- View Factor to Ground
  ,                                       !- Number of Vertices
  3.2328922035849, 0, 4.05484610179245,   !- X,Y,Z Vertex 1 {m}
  0, 0, 2.4384,                           !- X,Y,Z Vertex 2 {m}
  0, -12.9315688143396, 2.4384,           !- X,Y,Z Vertex 3 {m}
  3.2328922035849, -12.9315688143396, 4.05484610179245; !- X,Y,Z Vertex 4 {m}

OS:Surface,
  {2bc2e445-d6a4-4e4c-ae1f-e7285d40ba27}, !- Handle
  Surface 9,                              !- Name
  RoofCeiling,                            !- Surface Type
  ,                                       !- Construction Name
  {f9d47b5e-76ba-4ab2-942c-bba30ba05eec}, !- Space Name
  Outdoors,                               !- Outside Boundary Condition
  ,                                       !- Outside Boundary Condition Object
  SunExposed,                             !- Sun Exposure
  WindExposed,                            !- Wind Exposure
  ,                                       !- View Factor to Ground
  ,                                       !- Number of Vertices
  3.2328922035849, -12.9315688143396, 4.05484610179245, !- X,Y,Z Vertex 1 {m}
  6.46578440716979, -12.9315688143396, 2.4384, !- X,Y,Z Vertex 2 {m}
  6.46578440716979, 0, 2.4384,            !- X,Y,Z Vertex 3 {m}
  3.2328922035849, 0, 4.05484610179245;   !- X,Y,Z Vertex 4 {m}

OS:Surface,
  {f5b7a70b-177c-4ebf-a845-05b4efe94ba3}, !- Handle
  Surface 10,                             !- Name
  Wall,                                   !- Surface Type
  ,                                       !- Construction Name
  {f9d47b5e-76ba-4ab2-942c-bba30ba05eec}, !- Space Name
  Outdoors,                               !- Outside Boundary Condition
  ,                                       !- Outside Boundary Condition Object
  SunExposed,                             !- Sun Exposure
  WindExposed,                            !- Wind Exposure
  ,                                       !- View Factor to Ground
  ,                                       !- Number of Vertices
  3.2328922035849, -12.9315688143396, 4.05484610179245, !- X,Y,Z Vertex 1 {m}
  0, -12.9315688143396, 2.4384,           !- X,Y,Z Vertex 2 {m}
  6.46578440716979, -12.9315688143396, 2.4384; !- X,Y,Z Vertex 3 {m}

OS:Surface,
  {c81d65f0-d712-45fb-b8bc-94d196304cb4}, !- Handle
  Surface 11,                             !- Name
  Wall,                                   !- Surface Type
  ,                                       !- Construction Name
  {f9d47b5e-76ba-4ab2-942c-bba30ba05eec}, !- Space Name
  Outdoors,                               !- Outside Boundary Condition
  ,                                       !- Outside Boundary Condition Object
  SunExposed,                             !- Sun Exposure
  WindExposed,                            !- Wind Exposure
  ,                                       !- View Factor to Ground
  ,                                       !- Number of Vertices
  3.2328922035849, 0, 4.05484610179245,   !- X,Y,Z Vertex 1 {m}
  6.46578440716979, 0, 2.4384,            !- X,Y,Z Vertex 2 {m}
  0, 0, 2.4384;                           !- X,Y,Z Vertex 3 {m}

OS:ThermalZone,
  {7f67db12-e576-4c13-9e77-8f9dd8d174c2}, !- Handle
  living zone|unit 2,                     !- Name
  ,                                       !- Multiplier
  ,                                       !- Ceiling Height {m}
  ,                                       !- Volume {m3}
  ,                                       !- Floor Area {m2}
  ,                                       !- Zone Inside Convection Algorithm
  ,                                       !- Zone Outside Convection Algorithm
  ,                                       !- Zone Conditioning Equipment List Name
  {5fb272a9-b140-44eb-be05-2d0eed9dffd2}, !- Zone Air Inlet Port List
  {bbe56512-a35c-4ef9-8542-3e9935498a6c}, !- Zone Air Exhaust Port List
  {1fbb44d4-abd4-4936-af36-244ede059419}, !- Zone Air Node Name
  ,                                       !- Zone Return Air Node Name
  ,                                       !- Primary Daylighting Control Name
  ,                                       !- Fraction of Zone Controlled by Primary Daylighting Control
  ,                                       !- Secondary Daylighting Control Name
  ,                                       !- Fraction of Zone Controlled by Secondary Daylighting Control
  ,                                       !- Illuminance Map Name
  ,                                       !- Group Rendering Name
  ,                                       !- Thermostat Name
  No;                                     !- Use Ideal Air Loads

OS:Node,
  {f08e33e9-c13f-46d3-828c-f7e98a01c7e6}, !- Handle
  Node 2,                                 !- Name
  {1fbb44d4-abd4-4936-af36-244ede059419}, !- Inlet Port
  ;                                       !- Outlet Port

OS:Connection,
  {1fbb44d4-abd4-4936-af36-244ede059419}, !- Handle
  {38d924d6-544c-460b-b93b-b15403675c97}, !- Name
  {7f67db12-e576-4c13-9e77-8f9dd8d174c2}, !- Source Object
  11,                                     !- Outlet Port
  {f08e33e9-c13f-46d3-828c-f7e98a01c7e6}, !- Target Object
  2;                                      !- Inlet Port

OS:PortList,
  {5fb272a9-b140-44eb-be05-2d0eed9dffd2}, !- Handle
  {5e0e0d1f-32e5-4d90-8c35-d855b5aa1554}, !- Name
  {7f67db12-e576-4c13-9e77-8f9dd8d174c2}; !- HVAC Component

OS:PortList,
  {bbe56512-a35c-4ef9-8542-3e9935498a6c}, !- Handle
  {6ae0367b-b895-41f7-bb56-d3245d348e0a}, !- Name
  {7f67db12-e576-4c13-9e77-8f9dd8d174c2}; !- HVAC Component

OS:Sizing:Zone,
  {df96b81c-b1d1-490f-90c9-fb3f6fc9f357}, !- Handle
  {7f67db12-e576-4c13-9e77-8f9dd8d174c2}, !- Zone or ZoneList Name
  SupplyAirTemperature,                   !- Zone Cooling Design Supply Air Temperature Input Method
  14,                                     !- Zone Cooling Design Supply Air Temperature {C}
  11.11,                                  !- Zone Cooling Design Supply Air Temperature Difference {deltaC}
  SupplyAirTemperature,                   !- Zone Heating Design Supply Air Temperature Input Method
  40,                                     !- Zone Heating Design Supply Air Temperature {C}
  11.11,                                  !- Zone Heating Design Supply Air Temperature Difference {deltaC}
  0.0085,                                 !- Zone Cooling Design Supply Air Humidity Ratio {kg-H2O/kg-air}
  0.008,                                  !- Zone Heating Design Supply Air Humidity Ratio {kg-H2O/kg-air}
  ,                                       !- Zone Heating Sizing Factor
  ,                                       !- Zone Cooling Sizing Factor
  DesignDay,                              !- Cooling Design Air Flow Method
  ,                                       !- Cooling Design Air Flow Rate {m3/s}
  ,                                       !- Cooling Minimum Air Flow per Zone Floor Area {m3/s-m2}
  ,                                       !- Cooling Minimum Air Flow {m3/s}
  ,                                       !- Cooling Minimum Air Flow Fraction
  DesignDay,                              !- Heating Design Air Flow Method
  ,                                       !- Heating Design Air Flow Rate {m3/s}
  ,                                       !- Heating Maximum Air Flow per Zone Floor Area {m3/s-m2}
  ,                                       !- Heating Maximum Air Flow {m3/s}
  ,                                       !- Heating Maximum Air Flow Fraction
  ,                                       !- Design Zone Air Distribution Effectiveness in Cooling Mode
  ,                                       !- Design Zone Air Distribution Effectiveness in Heating Mode
  No,                                     !- Account for Dedicated Outdoor Air System
  NeutralSupplyAir,                       !- Dedicated Outdoor Air System Control Strategy
  autosize,                               !- Dedicated Outdoor Air Low Setpoint Temperature for Design {C}
  autosize;                               !- Dedicated Outdoor Air High Setpoint Temperature for Design {C}

OS:ZoneHVAC:EquipmentList,
  {b72a70d3-8a18-44ba-9767-fcf514f0fd76}, !- Handle
  Zone HVAC Equipment List 2,             !- Name
  {7f67db12-e576-4c13-9e77-8f9dd8d174c2}; !- Thermal Zone

OS:Space,
  {22f5424f-1a05-4784-9677-346fbb17c97f}, !- Handle
  living space|unit 2,                    !- Name
  {23673902-e399-476c-9207-c1c19c71dc7f}, !- Space Type Name
  ,                                       !- Default Construction Set Name
  ,                                       !- Default Schedule Set Name
  -0,                                     !- Direction of Relative North {deg}
  0,                                      !- X Origin {m}
  0,                                      !- Y Origin {m}
  0,                                      !- Z Origin {m}
  ,                                       !- Building Story Name
  {7f67db12-e576-4c13-9e77-8f9dd8d174c2}, !- Thermal Zone Name
  ,                                       !- Part of Total Floor Area
  ,                                       !- Design Specification Outdoor Air Object Name
  {f99b83e3-de8c-48b4-88cf-bdf4f4d2c41d}; !- Building Unit Name

OS:Surface,
  {60de3047-9e2c-495f-b362-65b2700e2fcf}, !- Handle
  Surface 12,                             !- Name
  RoofCeiling,                            !- Surface Type
  ,                                       !- Construction Name
  {22f5424f-1a05-4784-9677-346fbb17c97f}, !- Space Name
  Surface,                                !- Outside Boundary Condition
  {69760b46-bcb3-4c47-8cea-012a8c6f8060}, !- Outside Boundary Condition Object
  NoSun,                                  !- Sun Exposure
  NoWind,                                 !- Wind Exposure
  ,                                       !- View Factor to Ground
  ,                                       !- Number of Vertices
  12.9315688143396, -11.1027688143396, 2.4384, !- X,Y,Z Vertex 1 {m}
  12.9315688143396, 1.8288, 2.4384,       !- X,Y,Z Vertex 2 {m}
  6.46578440716979, 1.8288, 2.4384,       !- X,Y,Z Vertex 3 {m}
  6.46578440716979, -11.1027688143396, 2.4384; !- X,Y,Z Vertex 4 {m}

OS:Surface,
  {2c7c957b-f912-4180-9b6f-e09b07fbcec9}, !- Handle
  Surface 13,                             !- Name
  Wall,                                   !- Surface Type
  ,                                       !- Construction Name
  {22f5424f-1a05-4784-9677-346fbb17c97f}, !- Space Name
  Outdoors,                               !- Outside Boundary Condition
  ,                                       !- Outside Boundary Condition Object
  SunExposed,                             !- Sun Exposure
  WindExposed,                            !- Wind Exposure
  ,                                       !- View Factor to Ground
  ,                                       !- Number of Vertices
  6.46578440716979, -11.1027688143396, 2.4384, !- X,Y,Z Vertex 1 {m}
  6.46578440716979, -11.1027688143396, 0, !- X,Y,Z Vertex 2 {m}
  12.9315688143396, -11.1027688143396, 0, !- X,Y,Z Vertex 3 {m}
  12.9315688143396, -11.1027688143396, 2.4384; !- X,Y,Z Vertex 4 {m}

OS:Surface,
  {e1aef6f6-119f-4e42-aea9-9bbb522e8127}, !- Handle
  Surface 14,                             !- Name
  Wall,                                   !- Surface Type
  ,                                       !- Construction Name
  {22f5424f-1a05-4784-9677-346fbb17c97f}, !- Space Name
  Surface,                                !- Outside Boundary Condition
  {ad9e72b3-9791-49c1-8ea8-0825197515fe}, !- Outside Boundary Condition Object
  NoSun,                                  !- Sun Exposure
  NoWind,                                 !- Wind Exposure
  ,                                       !- View Factor to Ground
  ,                                       !- Number of Vertices
  12.9315688143396, -11.1027688143396, 2.4384, !- X,Y,Z Vertex 1 {m}
  12.9315688143396, -11.1027688143396, 0, !- X,Y,Z Vertex 2 {m}
  12.9315688143396, 0, 0,                 !- X,Y,Z Vertex 3 {m}
  12.9315688143396, 0, 2.4384;            !- X,Y,Z Vertex 4 {m}

OS:Surface,
  {be8013de-9444-413e-90fd-6477be913b2b}, !- Handle
  Surface 15,                             !- Name
  Wall,                                   !- Surface Type
  ,                                       !- Construction Name