!- NOTE: Auto-generated from /test/osw_files/SFD_1000sqft_1story_FB_GRG_UA_DoorArea.osw

OS:Version,
  {a6cb72c7-3781-43aa-935c-018926522ce3}, !- Handle
  2.4.0;                                  !- Version Identifier

OS:Building,
  {bf305633-c5a1-4881-9edf-ca5e1a8e1274}, !- Handle
  Building,                               !- Name
  ,                                       !- Building Sector Type
  ,                                       !- North Axis {deg}
  ,                                       !- Nominal Floor to Floor Height {m}
  ,                                       !- Space Type Name
  ,                                       !- Default Construction Set Name
  ,                                       !- Default Schedule Set Name
  2,                                      !- Standards Number of Stories
  1,                                      !- Standards Number of Above Ground Stories
  singlefamilydetached,                   !- Standards Building Type
  1;                                      !- Standards Number of Living Units

OS:YearDescription,
  {513d8dda-86cb-442a-b01c-1f7f0e0ac70e}; !- Handle

OS:SimulationControl,
  {2c487a4c-bac9-4ac5-b669-1e49d9da7c2b}, !- Handle
  ,                                       !- Do Zone Sizing Calculation
  ,                                       !- Do System Sizing Calculation
  ,                                       !- Do Plant Sizing Calculation
  No,                                     !- Run Simulation for Sizing Periods
  ;                                       !- Run Simulation for Weather File Run Periods

OS:Timestep,
  {4ebc9f1e-4707-402e-9844-67eb1ffbd522}, !- Handle
  6;                                      !- Number of Timesteps per Hour

OS:RunPeriod,
  {28df894d-6af9-4fb8-8f56-df1753344aa3}, !- Handle
  Run Period,                             !- Name
  1,                                      !- Begin Month
  1,                                      !- Begin Day of Month
  12,                                     !- End Month
  31,                                     !- End Day of Month
  ,                                       !- Use Weather File Holidays and Special Days
  ,                                       !- Use Weather File Daylight Saving Period
  ,                                       !- Apply Weekend Holiday Rule
  ,                                       !- Use Weather File Rain Indicators
  ,                                       !- Use Weather File Snow Indicators
  ;                                       !- Number of Times Runperiod to be Repeated

OS:Sizing:Parameters,
  {dde5af6f-7923-4600-a28a-7556673a0266}, !- Handle
  1.0,                                    !- Heating Sizing Factor
  1.0;                                    !- Cooling Sizing Factor

OS:ShadowCalculation,
  {ca758bea-4416-4626-9bba-3d8795c79bd6}, !- Handle
  20,                                     !- Calculation Frequency
  200;                                    !- Maximum Figures in Shadow Overlap Calculations

OS:SurfaceConvectionAlgorithm:Inside,
  {aaabfc36-718a-4ab0-b622-f186ebb45230}, !- Handle
  TARP;                                   !- Algorithm

OS:SurfaceConvectionAlgorithm:Outside,
  {9a0a9f6f-4bbd-4b12-a121-9492a1fcd7d6}, !- Handle
  DOE-2;                                  !- Algorithm

OS:HeatBalanceAlgorithm,
  {9d93e563-e1e0-46d7-9e39-d1c8aceb7212}, !- Handle
  ConductionTransferFunction,             !- Algorithm
  200;                                    !- Surface Temperature Upper Limit {C}

OS:ZoneCapacitanceMultiplier:ResearchSpecial,
  {6bfced16-b16f-47f6-8223-f7e267d75d19}, !- Handle
  ,                                       !- Temperature Capacity Multiplier
  15,                                     !- Humidity Capacity Multiplier
  ;                                       !- Carbon Dioxide Capacity Multiplier

OS:ThermalZone,
  {dfd0364b-b000-45da-9014-0402e21ce2be}, !- Handle
  living zone,                            !- Name
  ,                                       !- Multiplier
  ,                                       !- Ceiling Height {m}
  ,                                       !- Volume {m3}
  ,                                       !- Floor Area {m2}
  ,                                       !- Zone Inside Convection Algorithm
  ,                                       !- Zone Outside Convection Algorithm
  ,                                       !- Zone Conditioning Equipment List Name
  {a4b28055-e7cb-4068-9e3d-686f8080c1b3}, !- Zone Air Inlet Port List
  {36d9e80a-eb8f-4d33-bd5f-888938660906}, !- Zone Air Exhaust Port List
  {79427ad0-3b19-4924-a1ab-0446422e3641}, !- Zone Air Node Name
  ,                                       !- Zone Return Air Node Name
  ,                                       !- Primary Daylighting Control Name
  ,                                       !- Fraction of Zone Controlled by Primary Daylighting Control
  ,                                       !- Secondary Daylighting Control Name
  ,                                       !- Fraction of Zone Controlled by Secondary Daylighting Control
  ,                                       !- Illuminance Map Name
  ,                                       !- Group Rendering Name
  ,                                       !- Thermostat Name
  No;                                     !- Use Ideal Air Loads

OS:Node,
  {f1b25cbf-a034-4789-8184-15212969b26b}, !- Handle
  Node 1,                                 !- Name
  {79427ad0-3b19-4924-a1ab-0446422e3641}, !- Inlet Port
  ;                                       !- Outlet Port

OS:Connection,
  {79427ad0-3b19-4924-a1ab-0446422e3641}, !- Handle
  {5c722ba2-8913-48c5-bacd-35857e1dac62}, !- Name
  {dfd0364b-b000-45da-9014-0402e21ce2be}, !- Source Object
  11,                                     !- Outlet Port
  {f1b25cbf-a034-4789-8184-15212969b26b}, !- Target Object
  2;                                      !- Inlet Port

OS:PortList,
  {a4b28055-e7cb-4068-9e3d-686f8080c1b3}, !- Handle
  {cbc3be29-d464-48a7-b7af-5a3777df9831}, !- Name
  {dfd0364b-b000-45da-9014-0402e21ce2be}; !- HVAC Component

OS:PortList,
  {36d9e80a-eb8f-4d33-bd5f-888938660906}, !- Handle
  {6a50178d-def8-4846-8e22-002dd3639622}, !- Name
  {dfd0364b-b000-45da-9014-0402e21ce2be}; !- HVAC Component

OS:Sizing:Zone,
  {0b5f54c5-68d2-4b38-83ee-2330b981d2d1}, !- Handle
  {dfd0364b-b000-45da-9014-0402e21ce2be}, !- Zone or ZoneList Name
  SupplyAirTemperature,                   !- Zone Cooling Design Supply Air Temperature Input Method
  14,                                     !- Zone Cooling Design Supply Air Temperature {C}
  11.11,                                  !- Zone Cooling Design Supply Air Temperature Difference {deltaC}
  SupplyAirTemperature,                   !- Zone Heating Design Supply Air Temperature Input Method
  40,                                     !- Zone Heating Design Supply Air Temperature {C}
  11.11,                                  !- Zone Heating Design Supply Air Temperature Difference {deltaC}
  0.0085,                                 !- Zone Cooling Design Supply Air Humidity Ratio {kg-H2O/kg-air}
  0.008,                                  !- Zone Heating Design Supply Air Humidity Ratio {kg-H2O/kg-air}
  ,                                       !- Zone Heating Sizing Factor
  ,                                       !- Zone Cooling Sizing Factor
  DesignDay,                              !- Cooling Design Air Flow Method
  ,                                       !- Cooling Design Air Flow Rate {m3/s}
  ,                                       !- Cooling Minimum Air Flow per Zone Floor Area {m3/s-m2}
  ,                                       !- Cooling Minimum Air Flow {m3/s}
  ,                                       !- Cooling Minimum Air Flow Fraction
  DesignDay,                              !- Heating Design Air Flow Method
  ,                                       !- Heating Design Air Flow Rate {m3/s}
  ,                                       !- Heating Maximum Air Flow per Zone Floor Area {m3/s-m2}
  ,                                       !- Heating Maximum Air Flow {m3/s}
  ,                                       !- Heating Maximum Air Flow Fraction
  ,                                       !- Design Zone Air Distribution Effectiveness in Cooling Mode
  ,                                       !- Design Zone Air Distribution Effectiveness in Heating Mode
  No,                                     !- Account for Dedicated Outdoor Air System
  NeutralSupplyAir,                       !- Dedicated Outdoor Air System Control Strategy
  autosize,                               !- Dedicated Outdoor Air Low Setpoint Temperature for Design {C}
  autosize;                               !- Dedicated Outdoor Air High Setpoint Temperature for Design {C}

OS:ZoneHVAC:EquipmentList,
  {0bef4342-6877-4f55-ab5e-51afa5968c23}, !- Handle
  Zone HVAC Equipment List 1,             !- Name
  {dfd0364b-b000-45da-9014-0402e21ce2be}; !- Thermal Zone

OS:ThermalZone,
  {5578c62b-2af8-43d8-a9cf-1372d11b0854}, !- Handle
  garage zone,                            !- Name
  ,                                       !- Multiplier
  ,                                       !- Ceiling Height {m}
  ,                                       !- Volume {m3}
  ,                                       !- Floor Area {m2}
  ,                                       !- Zone Inside Convection Algorithm
  ,                                       !- Zone Outside Convection Algorithm
  ,                                       !- Zone Conditioning Equipment List Name
  {9548fda5-ecd7-48b6-811b-1c061c76e8e4}, !- Zone Air Inlet Port List
  {0506e070-7816-4b4b-b0f1-0c8f72db3c64}, !- Zone Air Exhaust Port List
  {d5e4535e-d4da-4703-b571-38f492742892}, !- Zone Air Node Name
  ,                                       !- Zone Return Air Node Name
  ,                                       !- Primary Daylighting Control Name
  ,                                       !- Fraction of Zone Controlled by Primary Daylighting Control
  ,                                       !- Secondary Daylighting Control Name
  ,                                       !- Fraction of Zone Controlled by Secondary Daylighting Control
  ,                                       !- Illuminance Map Name
  ,                                       !- Group Rendering Name
  ,                                       !- Thermostat Name
  No;                                     !- Use Ideal Air Loads

OS:Node,
  {7618f655-45a1-4768-a9d2-8e0c969aae50}, !- Handle
  Node 2,                                 !- Name
  {d5e4535e-d4da-4703-b571-38f492742892}, !- Inlet Port
  ;                                       !- Outlet Port

OS:Connection,
  {d5e4535e-d4da-4703-b571-38f492742892}, !- Handle
  {2e6dd4f6-3665-4e59-95e8-13679ceed221}, !- Name
  {5578c62b-2af8-43d8-a9cf-1372d11b0854}, !- Source Object
  11,                                     !- Outlet Port
  {7618f655-45a1-4768-a9d2-8e0c969aae50}, !- Target Object
  2;                                      !- Inlet Port

OS:PortList,
  {9548fda5-ecd7-48b6-811b-1c061c76e8e4}, !- Handle
  {1a9344ec-415a-4a2f-80e8-df3d47f0a5a2}, !- Name
  {5578c62b-2af8-43d8-a9cf-1372d11b0854}; !- HVAC Component

OS:PortList,
  {0506e070-7816-4b4b-b0f1-0c8f72db3c64}, !- Handle
  {564a6090-52de-4f44-8c9a-0b15d64f3ce7}, !- Name
  {5578c62b-2af8-43d8-a9cf-1372d11b0854}; !- HVAC Component

OS:Sizing:Zone,
  {138879da-05aa-4ecb-85d9-e08c084e9cda}, !- Handle
  {5578c62b-2af8-43d8-a9cf-1372d11b0854}, !- Zone or ZoneList Name
  SupplyAirTemperature,                   !- Zone Cooling Design Supply Air Temperature Input Method
  14,                                     !- Zone Cooling Design Supply Air Temperature {C}
  11.11,                                  !- Zone Cooling Design Supply Air Temperature Difference {deltaC}
  SupplyAirTemperature,                   !- Zone Heating Design Supply Air Temperature Input Method
  40,                                     !- Zone Heating Design Supply Air Temperature {C}
  11.11,                                  !- Zone Heating Design Supply Air Temperature Difference {deltaC}
  0.0085,                                 !- Zone Cooling Design Supply Air Humidity Ratio {kg-H2O/kg-air}
  0.008,                                  !- Zone Heating Design Supply Air Humidity Ratio {kg-H2O/kg-air}
  ,                                       !- Zone Heating Sizing Factor
  ,                                       !- Zone Cooling Sizing Factor
  DesignDay,                              !- Cooling Design Air Flow Method
  ,                                       !- Cooling Design Air Flow Rate {m3/s}
  ,                                       !- Cooling Minimum Air Flow per Zone Floor Area {m3/s-m2}
  ,                                       !- Cooling Minimum Air Flow {m3/s}
  ,                                       !- Cooling Minimum Air Flow Fraction
  DesignDay,                              !- Heating Design Air Flow Method
  ,                                       !- Heating Design Air Flow Rate {m3/s}
  ,                                       !- Heating Maximum Air Flow per Zone Floor Area {m3/s-m2}
  ,                                       !- Heating Maximum Air Flow {m3/s}
  ,                                       !- Heating Maximum Air Flow Fraction
  ,                                       !- Design Zone Air Distribution Effectiveness in Cooling Mode
  ,                                       !- Design Zone Air Distribution Effectiveness in Heating Mode
  No,                                     !- Account for Dedicated Outdoor Air System
  NeutralSupplyAir,                       !- Dedicated Outdoor Air System Control Strategy
  autosize,                               !- Dedicated Outdoor Air Low Setpoint Temperature for Design {C}
  autosize;                               !- Dedicated Outdoor Air High Setpoint Temperature for Design {C}

OS:ZoneHVAC:EquipmentList,
  {7664a16d-a2e3-4f8c-ab92-a39f40b0ca8c}, !- Handle
  Zone HVAC Equipment List 2,             !- Name
  {5578c62b-2af8-43d8-a9cf-1372d11b0854}; !- Thermal Zone

OS:Space,
  {4c2902b9-141b-4891-90ab-66712e07f47a}, !- Handle
  garage space,                           !- Name
  ,                                       !- Space Type Name
  ,                                       !- Default Construction Set Name
  ,                                       !- Default Schedule Set Name
  -0,                                     !- Direction of Relative North {deg}
  0,                                      !- X Origin {m}
  0,                                      !- Y Origin {m}
  0,                                      !- Z Origin {m}
  ,                                       !- Building Story Name
  {5578c62b-2af8-43d8-a9cf-1372d11b0854}, !- Thermal Zone Name
  ,                                       !- Part of Total Floor Area
  ,                                       !- Design Specification Outdoor Air Object Name
  {a50048b5-2353-4996-bab3-22f7379b6b69}; !- Building Unit Name

OS:Surface,
  {ed625d59-608c-485f-b125-b6b77ba4bb5e}, !- Handle
  Surface 1,                              !- Name
  Floor,                                  !- Surface Type
  ,                                       !- Construction Name
  {4c2902b9-141b-4891-90ab-66712e07f47a}, !- Space Name
  Ground,                                 !- Outside Boundary Condition
  ,                                       !- Outside Boundary Condition Object
  NoSun,                                  !- Sun Exposure
  NoWind,                                 !- Wind Exposure
  ,                                       !- View Factor to Ground
  ,                                       !- Number of Vertices
  1.51135555430162, -3.6576, 0,           !- X,Y,Z Vertex 1 {m}
  1.51135555430162, 3.6576, 0,            !- X,Y,Z Vertex 2 {m}
  12.4841555543016, 3.6576, 0,            !- X,Y,Z Vertex 3 {m}
  12.4841555543016, -3.6576, 0;           !- X,Y,Z Vertex 4 {m}

OS:Surface,
  {a56c5b1e-e2df-4934-9d69-6f7801c76cc5}, !- Handle
  Surface 2,                              !- Name
  Wall,                                   !- Surface Type
  ,                                       !- Construction Name
  {4c2902b9-141b-4891-90ab-66712e07f47a}, !- Space Name
  Surface,                                !- Outside Boundary Condition
  {b2e0ccf1-112d-4cb4-bc9d-c9026f824672}, !- Outside Boundary Condition Object
  NoSun,                                  !- Sun Exposure
  NoWind,                                 !- Wind Exposure
  ,                                       !- View Factor to Ground
  ,                                       !- Number of Vertices
  1.51135555430162, 3.6576, 2.4384,       !- X,Y,Z Vertex 1 {m}
  1.51135555430162, 3.6576, 0,            !- X,Y,Z Vertex 2 {m}
  1.51135555430162, 0, 0,                 !- X,Y,Z Vertex 3 {m}
  1.51135555430162, 0, 2.4384;            !- X,Y,Z Vertex 4 {m}

OS:Surface,
  {115c788e-113a-4dd7-a24f-28ad3a4a325c}, !- Handle
  Surface 3,                              !- Name
  Wall,                                   !- Surface Type
  ,                                       !- Construction Name
  {4c2902b9-141b-4891-90ab-66712e07f47a}, !- Space Name
  Surface,                                !- Outside Boundary Condition
  {0c23b2ad-331d-40a0-929c-08924cf439cf}, !- Outside Boundary Condition Object
  NoSun,                                  !- Sun Exposure
  NoWind,                                 !- Wind Exposure
  ,                                       !- View Factor to Ground
  ,                                       !- Number of Vertices
  12.4841555543016, 3.6576, 2.4384,       !- X,Y,Z Vertex 1 {m}
  12.4841555543016, 3.6576, 0,            !- X,Y,Z Vertex 2 {m}
  1.51135555430162, 3.6576, 0,            !- X,Y,Z Vertex 3 {m}
  1.51135555430162, 3.6576, 2.4384;       !- X,Y,Z Vertex 4 {m}

OS:Surface,
  {65dd7224-ca39-463f-b650-335cb0b90794}, !- Handle
  Surface 4,                              !- Name
  Wall,                                   !- Surface Type
  ,                                       !- Construction Name
  {4c2902b9-141b-4891-90ab-66712e07f47a}, !- Space Name
  Outdoors,                               !- Outside Boundary Condition
  ,                                       !- Outside Boundary Condition Object
  SunExposed,                             !- Sun Exposure
  WindExposed,                            !- Wind Exposure
  ,                                       !- View Factor to Ground
  ,                                       !- Number of Vertices
  12.4841555543016, -3.6576, 2.4384,      !- X,Y,Z Vertex 1 {m}
  12.4841555543016, -3.6576, 0,           !- X,Y,Z Vertex 2 {m}
  12.4841555543016, 3.6576, 0,            !- X,Y,Z Vertex 3 {m}
  12.4841555543016, 3.6576, 2.4384;       !- X,Y,Z Vertex 4 {m}

OS:Surface,
  {7c07b08a-5f2b-473e-9c68-ade03f9c1cb7}, !- Handle
  Surface 5,                              !- Name
  Wall,                                   !- Surface Type
  ,                                       !- Construction Name
  {4c2902b9-141b-4891-90ab-66712e07f47a}, !- Space Name
  Outdoors,                               !- Outside Boundary Condition
  ,                                       !- Outside Boundary Condition Object
  SunExposed,                             !- Sun Exposure
  WindExposed,                            !- Wind Exposure
  ,                                       !- View Factor to Ground
  ,                                       !- Number of Vertices
  1.51135555430162, -3.6576, 2.4384,      !- X,Y,Z Vertex 1 {m}
  1.51135555430162, -3.6576, 0,           !- X,Y,Z Vertex 2 {m}
  12.4841555543016, -3.6576, 0,           !- X,Y,Z Vertex 3 {m}
  12.4841555543016, -3.6576, 2.4384;      !- X,Y,Z Vertex 4 {m}

OS:Surface,
  {464dec21-046a-4ddf-b498-49958dc958ab}, !- Handle
  Surface 6,                              !- Name
  RoofCeiling,                            !- Surface Type
  ,                                       !- Construction Name
  {4c2902b9-141b-4891-90ab-66712e07f47a}, !- Space Name
  Surface,                                !- Outside Boundary Condition
  {5059039d-630c-4d3d-a9a8-7ccfacdf371a}, !- Outside Boundary Condition Object
  NoSun,                                  !- Sun Exposure
  NoWind,                                 !- Wind Exposure
  ,                                       !- View Factor to Ground
  ,                                       !- Number of Vertices
  12.4841555543016, 0, 2.4384,            !- X,Y,Z Vertex 1 {m}
  12.4841555543016, 3.6576, 2.4384,       !- X,Y,Z Vertex 2 {m}
  1.51135555430162, 3.6576, 2.4384,       !- X,Y,Z Vertex 3 {m}
  1.51135555430162, 0, 2.4384;            !- X,Y,Z Vertex 4 {m}

OS:Space,
  {d2f98d13-0d90-42f5-bc81-139a1d52a204}, !- Handle
  living space,                           !- Name
  ,                                       !- Space Type Name
  ,                                       !- Default Construction Set Name
  ,                                       !- Default Schedule Set Name
  -0,                                     !- Direction of Relative North {deg}
  0,                                      !- X Origin {m}
  0,                                      !- Y Origin {m}
  0,                                      !- Z Origin {m}
  ,                                       !- Building Story Name
  {dfd0364b-b000-45da-9014-0402e21ce2be}, !- Thermal Zone Name
  ,                                       !- Part of Total Floor Area
  ,                                       !- Design Specification Outdoor Air Object Name
  {a50048b5-2353-4996-bab3-22f7379b6b69}; !- Building Unit Name

OS:Surface,
  {7eb4390e-4b69-4b3c-bc5c-da89c53233db}, !- Handle
  Surface 7,                              !- Name
  Floor,                                  !- Surface Type
  ,                                       !- Construction Name
  {d2f98d13-0d90-42f5-bc81-139a1d52a204}, !- Space Name
  Surface,                                !- Outside Boundary Condition
  {06ca7377-dfb1-4d71-80a4-2ed56a1f2ccc}, !- Outside Boundary Condition Object
  NoSun,                                  !- Sun Exposure
  NoWind,                                 !- Wind Exposure
  ,                                       !- View Factor to Ground
  ,                                       !- Number of Vertices
  0, 0, 0,                                !- X,Y,Z Vertex 1 {m}
  0, 6.93564197461201, 0,                 !- X,Y,Z Vertex 2 {m}
  12.4841555543016, 6.93564197461201, 0,  !- X,Y,Z Vertex 3 {m}
  12.4841555543016, 3.6576, 0,            !- X,Y,Z Vertex 4 {m}
  1.51135555430162, 3.6576, 0,            !- X,Y,Z Vertex 5 {m}
  1.51135555430162, 0, 0;                 !- X,Y,Z Vertex 6 {m}

OS:Surface,
  {0a1da51c-4922-4d73-bbc8-f311b4077c16}, !- Handle
  Surface 8,                              !- Name
  Wall,                                   !- Surface Type
  ,                                       !- Construction Name
  {d2f98d13-0d90-42f5-bc81-139a1d52a204}, !- Space Name
  Outdoors,                               !- Outside Boundary Condition
  ,                                       !- Outside Boundary Condition Object
  SunExposed,                             !- Sun Exposure
  WindExposed,                            !- Wind Exposure
  ,                                       !- View Factor to Ground
  ,                                       !- Number of Vertices
  0, 6.93564197461201, 2.4384,            !- X,Y,Z Vertex 1 {m}
  0, 6.93564197461201, 0,                 !- X,Y,Z Vertex 2 {m}
  0, 0, 0,                                !- X,Y,Z Vertex 3 {m}
  0, 0, 2.4384;                           !- X,Y,Z Vertex 4 {m}

OS:Surface,
  {3955dd67-146b-431f-bcfa-54f62d3dd728}, !- Handle
  Surface 9,                              !- Name
  Wall,                                   !- Surface Type
  ,                                       !- Construction Name
  {d2f98d13-0d90-42f5-bc81-139a1d52a204}, !- Space Name
  Outdoors,                               !- Outside Boundary Condition
  ,                                       !- Outside Boundary Condition Object
  SunExposed,                             !- Sun Exposure
  WindExposed,                            !- Wind Exposure
  ,                                       !- View Factor to Ground
  ,                                       !- Number of Vertices
  12.4841555543016, 6.93564197461201, 2.4384, !- X,Y,Z Vertex 1 {m}
  12.4841555543016, 6.93564197461201, 0,  !- X,Y,Z Vertex 2 {m}
  0, 6.93564197461201, 0,                 !- X,Y,Z Vertex 3 {m}
  0, 6.93564197461201, 2.4384;            !- X,Y,Z Vertex 4 {m}

OS:Surface,
  {e95d93fe-a504-49f6-af2a-eef4c707cfd9}, !- Handle
  Surface 10,                             !- Name
  Wall,                                   !- Surface Type
  ,                                       !- Construction Name
  {d2f98d13-0d90-42f5-bc81-139a1d52a204}, !- Space Name
  Outdoors,                               !- Outside Boundary Condition
  ,                                       !- Outside Boundary Condition Object
  SunExposed,                             !- Sun Exposure
  WindExposed,                            !- Wind Exposure
  ,                                       !- View Factor to Ground
  ,                                       !- Number of Vertices
  12.4841555543016, 3.6576, 2.4384,       !- X,Y,Z Vertex 1 {m}
  12.4841555543016, 3.6576, 0,            !- X,Y,Z Vertex 2 {m}
  12.4841555543016, 6.93564197461201, 0,  !- X,Y,Z Vertex 3 {m}
  12.4841555543016, 6.93564197461201, 2.4384; !- X,Y,Z Vertex 4 {m}

OS:Surface,
  {0c23b2ad-331d-40a0-929c-08924cf439cf}, !- Handle
  Surface 11,                             !- Name
  Wall,                                   !- Surface Type
  ,                                       !- Construction Name
  {d2f98d13-0d90-42f5-bc81-139a1d52a204}, !- Space Name
  Surface,                                !- Outside Boundary Condition
  {115c788e-113a-4dd7-a24f-28ad3a4a325c}, !- Outside Boundary Condition Object
  NoSun,                                  !- Sun Exposure
  NoWind,                                 !- Wind Exposure
  ,                                       !- View Factor to Ground
  ,                                       !- Number of Vertices
  1.51135555430162, 3.6576, 2.4384,       !- X,Y,Z Vertex 1 {m}
  1.51135555430162, 3.6576, 0,            !- X,Y,Z Vertex 2 {m}
  12.4841555543016, 3.6576, 0,            !- X,Y,Z Vertex 3 {m}
  12.4841555543016, 3.6576, 2.4384;       !- X,Y,Z Vertex 4 {m}

OS:Surface,
  {b2e0ccf1-112d-4cb4-bc9d-c9026f824672}, !- Handle
  Surface 12,                             !- Name
  Wall,                                   !- Surface Type
  ,                                       !- Construction Name
  {d2f98d13-0d90-42f5-bc81-139a1d52a204}, !- Space Name
  Surface,                                !- Outside Boundary Condition
  {a56c5b1e-e2df-4934-9d69-6f7801c76cc5}, !- Outside Boundary Condition Object
  NoSun,                                  !- Sun Exposure
  NoWind,                                 !- Wind Exposure
  ,                                       !- View Factor to Ground
  ,                                       !- Number of Vertices
  1.51135555430162, 0, 2.4384,            !- X,Y,Z Vertex 1 {m}
  1.51135555430162, 0, 0,                 !- X,Y,Z Vertex 2 {m}
  1.51135555430162, 3.6576, 0,            !- X,Y,Z Vertex 3 {m}
  1.51135555430162, 3.6576, 2.4384;       !- X,Y,Z Vertex 4 {m}

OS:Surface,
  {bb93517f-3586-42f4-a92f-d198c49542e6}, !- Handle
  Surface 13,                             !- Name
  Wall,                                   !- Surface Type
  ,                                       !- Construction Name
  {d2f98d13-0d90-42f5-bc81-139a1d52a204}, !- Space Name
  Outdoors,                               !- Outside Boundary Condition
  ,                                       !- Outside Boundary Condition Object
  SunExposed,                             !- Sun Exposure
  WindExposed,                            !- Wind Exposure
  ,                                       !- View Factor to Ground
  ,                                       !- Number of Vertices
  0, 0, 2.4384,                           !- X,Y,Z Vertex 1 {m}
  0, 0, 0,                                !- X,Y,Z Vertex 2 {m}
  1.51135555430162, 0, 0,                 !- X,Y,Z Vertex 3 {m}
  1.51135555430162, 0, 2.4384;            !- X,Y,Z Vertex 4 {m}

OS:Surface,
  {ee45f0fb-de99-4b23-b9cc-216b4a72be5e}, !- Handle
  Surface 14,                             !- Name
  RoofCeiling,                            !- Surface Type
  ,                                       !- Construction Name
  {d2f98d13-0d90-42f5-bc81-139a1d52a204}, !- Space Name
  Surface,                                !- Outside Boundary Condition
  {ae375e39-4186-4f37-bf9f-5f7296ddc1ec}, !- Outside Boundary Condition Object
  NoSun,                                  !- Sun Exposure
  NoWind,                                 !- Wind Exposure
  ,                                       !- View Factor to Ground
  ,                                       !- Number of Vertices
  1.51135555430162, 0, 2.4384,            !- X,Y,Z Vertex 1 {m}
  1.51135555430162, 3.6576, 2.4384,       !- X,Y,Z Vertex 2 {m}
  12.4841555543016, 3.6576, 2.4384,       !- X,Y,Z Vertex 3 {m}
  12.4841555543016, 6.93564197461201, 2.4384, !- X,Y,Z Vertex 4 {m}
  0, 6.93564197461201, 2.4384,            !- X,Y,Z Vertex 5 {m}
  0, 0, 2.4384;                           !- X,Y,Z Vertex 6 {m}

OS:Surface,
  {5059039d-630c-4d3d-a9a8-7ccfacdf371a}, !- Handle
  Surface 15,                             !- Name
  Floor,                                  !- Surface Type
  ,                                       !- Construction Name
  {6f7643bd-134a-44b0-b809-ae3e3412e098}, !- Space Name
  Surface,                                !- Outside Boundary Condition
  {464dec21-046a-4ddf-b498-49958dc958ab}, !- Outside Boundary Condition Object
  NoSun,                                  !- Sun Exposure