!- NOTE: Auto-generated from /test/osw_files/SFD_2000sqft_2story_FB_GRG_UA_3Beds_2Baths_Denver_East_GasWHTank.osw

OS:Version,
  {f126b23c-d5d5-4cff-9fc5-391d977301ed}, !- Handle
  2.3.1;                                  !- Version Identifier

OS:Building,
  {bf305633-c5a1-4881-9edf-ca5e1a8e1274}, !- Handle
  Building,                               !- Name
  ,                                       !- Building Sector Type
  270,                                    !- North Axis {deg}
  ,                                       !- Nominal Floor to Floor Height {m}
  ,                                       !- Space Type Name
  ,                                       !- Default Construction Set Name
  ,                                       !- Default Schedule Set Name
  3,                                      !- Standards Number of Stories
  2,                                      !- Standards Number of Above Ground Stories
  singlefamilydetached,                   !- Standards Building Type
  1;                                      !- Standards Number of Living Units

OS:YearDescription,
  {513d8dda-86cb-442a-b01c-1f7f0e0ac70e}; !- Handle

OS:SimulationControl,
  {2c487a4c-bac9-4ac5-b669-1e49d9da7c2b}, !- Handle
  ,                                       !- Do Zone Sizing Calculation
  ,                                       !- Do System Sizing Calculation
  ,                                       !- Do Plant Sizing Calculation
  No,                                     !- Run Simulation for Sizing Periods
  ;                                       !- Run Simulation for Weather File Run Periods

OS:Timestep,
  {4ebc9f1e-4707-402e-9844-67eb1ffbd522}, !- Handle
  6;                                      !- Number of Timesteps per Hour

OS:RunPeriod,
  {28df894d-6af9-4fb8-8f56-df1753344aa3}, !- Handle
  Run Period,                             !- Name
  1,                                      !- Begin Month
  1,                                      !- Begin Day of Month
  12,                                     !- End Month
  31,                                     !- End Day of Month
  ,                                       !- Use Weather File Holidays and Special Days
  ,                                       !- Use Weather File Daylight Saving Period
  ,                                       !- Apply Weekend Holiday Rule
  ,                                       !- Use Weather File Rain Indicators
  ,                                       !- Use Weather File Snow Indicators
  ;                                       !- Number of Times Runperiod to be Repeated

OS:Sizing:Parameters,
  {dde5af6f-7923-4600-a28a-7556673a0266}, !- Handle
  1.0,                                    !- Heating Sizing Factor
  1.0;                                    !- Cooling Sizing Factor

OS:ShadowCalculation,
  {ca758bea-4416-4626-9bba-3d8795c79bd6}, !- Handle
  20,                                     !- Calculation Frequency
  200;                                    !- Maximum Figures in Shadow Overlap Calculations

OS:SurfaceConvectionAlgorithm:Inside,
  {aaabfc36-718a-4ab0-b622-f186ebb45230}, !- Handle
  TARP;                                   !- Algorithm

OS:SurfaceConvectionAlgorithm:Outside,
  {9a0a9f6f-4bbd-4b12-a121-9492a1fcd7d6}, !- Handle
  DOE-2;                                  !- Algorithm

OS:HeatBalanceAlgorithm,
  {9d93e563-e1e0-46d7-9e39-d1c8aceb7212}, !- Handle
  ConductionTransferFunction,             !- Algorithm
  200;                                    !- Surface Temperature Upper Limit {C}

OS:ZoneCapacitanceMultiplier:ResearchSpecial,
  {6bfced16-b16f-47f6-8223-f7e267d75d19}, !- Handle
  ,                                       !- Temperature Capacity Multiplier
  15,                                     !- Humidity Capacity Multiplier
  ;                                       !- Carbon Dioxide Capacity Multiplier

OS:ThermalZone,
  {7e478df1-ef90-47aa-84f1-b44125e52138}, !- Handle
  living zone,                            !- Name
  ,                                       !- Multiplier
  ,                                       !- Ceiling Height {m}
  ,                                       !- Volume {m3}
  ,                                       !- Floor Area {m2}
  ,                                       !- Zone Inside Convection Algorithm
  ,                                       !- Zone Outside Convection Algorithm
  ,                                       !- Zone Conditioning Equipment List Name
  {c2541c41-841b-41e8-8da4-964b7a482154}, !- Zone Air Inlet Port List
  {6939f2e7-23b1-4bd8-8a8b-0070b0f19ef6}, !- Zone Air Exhaust Port List
  {5628e41d-b92b-4053-8dcb-6e72e3942453}, !- Zone Air Node Name
  ,                                       !- Zone Return Air Node Name
  ,                                       !- Primary Daylighting Control Name
  ,                                       !- Fraction of Zone Controlled by Primary Daylighting Control
  ,                                       !- Secondary Daylighting Control Name
  ,                                       !- Fraction of Zone Controlled by Secondary Daylighting Control
  ,                                       !- Illuminance Map Name
  ,                                       !- Group Rendering Name
  ,                                       !- Thermostat Name
  No;                                     !- Use Ideal Air Loads

OS:Node,
  {8627bf38-1830-478e-bd26-3a492817dac3}, !- Handle
  Node 1,                                 !- Name
  {5628e41d-b92b-4053-8dcb-6e72e3942453}, !- Inlet Port
  ;                                       !- Outlet Port

OS:Connection,
  {5628e41d-b92b-4053-8dcb-6e72e3942453}, !- Handle
  {47e4da3a-64cd-4272-b844-3afff2d92f86}, !- Name
  {7e478df1-ef90-47aa-84f1-b44125e52138}, !- Source Object
  11,                                     !- Outlet Port
  {8627bf38-1830-478e-bd26-3a492817dac3}, !- Target Object
  2;                                      !- Inlet Port

OS:PortList,
  {c2541c41-841b-41e8-8da4-964b7a482154}, !- Handle
  {b6f31e6b-06a2-45dd-aca4-c11962985ee5}, !- Name
  {7e478df1-ef90-47aa-84f1-b44125e52138}; !- HVAC Component

OS:PortList,
  {6939f2e7-23b1-4bd8-8a8b-0070b0f19ef6}, !- Handle
  {4cd34b8f-e22b-4800-b222-7221d0c4f936}, !- Name
  {7e478df1-ef90-47aa-84f1-b44125e52138}; !- HVAC Component

OS:Sizing:Zone,
  {61899c40-a5c5-4610-88b4-8101284bdb0d}, !- Handle
  {7e478df1-ef90-47aa-84f1-b44125e52138}, !- Zone or ZoneList Name
  SupplyAirTemperature,                   !- Zone Cooling Design Supply Air Temperature Input Method
  14,                                     !- Zone Cooling Design Supply Air Temperature {C}
  11.11,                                  !- Zone Cooling Design Supply Air Temperature Difference {deltaC}
  SupplyAirTemperature,                   !- Zone Heating Design Supply Air Temperature Input Method
  40,                                     !- Zone Heating Design Supply Air Temperature {C}
  11.11,                                  !- Zone Heating Design Supply Air Temperature Difference {deltaC}
  0.0085,                                 !- Zone Cooling Design Supply Air Humidity Ratio {kg-H2O/kg-air}
  0.008,                                  !- Zone Heating Design Supply Air Humidity Ratio {kg-H2O/kg-air}
  ,                                       !- Zone Heating Sizing Factor
  ,                                       !- Zone Cooling Sizing Factor
  DesignDay,                              !- Cooling Design Air Flow Method
  ,                                       !- Cooling Design Air Flow Rate {m3/s}
  ,                                       !- Cooling Minimum Air Flow per Zone Floor Area {m3/s-m2}
  ,                                       !- Cooling Minimum Air Flow {m3/s}
  ,                                       !- Cooling Minimum Air Flow Fraction
  DesignDay,                              !- Heating Design Air Flow Method
  ,                                       !- Heating Design Air Flow Rate {m3/s}
  ,                                       !- Heating Maximum Air Flow per Zone Floor Area {m3/s-m2}
  ,                                       !- Heating Maximum Air Flow {m3/s}
  ,                                       !- Heating Maximum Air Flow Fraction
  ,                                       !- Design Zone Air Distribution Effectiveness in Cooling Mode
  ,                                       !- Design Zone Air Distribution Effectiveness in Heating Mode
  No,                                     !- Account for Dedicated Outdoor Air System
  NeutralSupplyAir,                       !- Dedicated Outdoor Air System Control Strategy
  autosize,                               !- Dedicated Outdoor Air Low Setpoint Temperature for Design {C}
  autosize;                               !- Dedicated Outdoor Air High Setpoint Temperature for Design {C}

OS:ZoneHVAC:EquipmentList,
  {dbedae12-f499-4b8f-97fd-19e6af3a465f}, !- Handle
  Zone HVAC Equipment List 1,             !- Name
  {7e478df1-ef90-47aa-84f1-b44125e52138}; !- Thermal Zone

OS:ThermalZone,
  {b9362dca-3df7-4e8d-8da9-587426d3ff9f}, !- Handle
  garage zone,                            !- Name
  ,                                       !- Multiplier
  ,                                       !- Ceiling Height {m}
  ,                                       !- Volume {m3}
  ,                                       !- Floor Area {m2}
  ,                                       !- Zone Inside Convection Algorithm
  ,                                       !- Zone Outside Convection Algorithm
  ,                                       !- Zone Conditioning Equipment List Name
  {d8592b8c-7355-4eca-addd-c380cfbcea75}, !- Zone Air Inlet Port List
  {9718934e-edf4-4f58-bbb8-912b545daa71}, !- Zone Air Exhaust Port List
  {763f33aa-3b90-4129-b937-a2b2fd912a91}, !- Zone Air Node Name
  ,                                       !- Zone Return Air Node Name
  ,                                       !- Primary Daylighting Control Name
  ,                                       !- Fraction of Zone Controlled by Primary Daylighting Control
  ,                                       !- Secondary Daylighting Control Name
  ,                                       !- Fraction of Zone Controlled by Secondary Daylighting Control
  ,                                       !- Illuminance Map Name
  ,                                       !- Group Rendering Name
  ,                                       !- Thermostat Name
  No;                                     !- Use Ideal Air Loads

OS:Node,
  {41c964e2-0eb6-4466-8e20-8f79bcebad79}, !- Handle
  Node 2,                                 !- Name
  {763f33aa-3b90-4129-b937-a2b2fd912a91}, !- Inlet Port
  ;                                       !- Outlet Port

OS:Connection,
  {763f33aa-3b90-4129-b937-a2b2fd912a91}, !- Handle
  {44a8a4f6-c2e2-4109-ae5b-a3832ace858a}, !- Name
  {b9362dca-3df7-4e8d-8da9-587426d3ff9f}, !- Source Object
  11,                                     !- Outlet Port
  {41c964e2-0eb6-4466-8e20-8f79bcebad79}, !- Target Object
  2;                                      !- Inlet Port

OS:PortList,
  {d8592b8c-7355-4eca-addd-c380cfbcea75}, !- Handle
  {d4d67486-05e0-4322-95ca-46eef68d6b10}, !- Name
  {b9362dca-3df7-4e8d-8da9-587426d3ff9f}; !- HVAC Component

OS:PortList,
  {9718934e-edf4-4f58-bbb8-912b545daa71}, !- Handle
  {8bec75a6-227f-4018-b488-36620fea12f7}, !- Name
  {b9362dca-3df7-4e8d-8da9-587426d3ff9f}; !- HVAC Component

OS:Sizing:Zone,
  {10c9f930-9532-4583-8dd6-9e2adb6e2946}, !- Handle
  {b9362dca-3df7-4e8d-8da9-587426d3ff9f}, !- Zone or ZoneList Name
  SupplyAirTemperature,                   !- Zone Cooling Design Supply Air Temperature Input Method
  14,                                     !- Zone Cooling Design Supply Air Temperature {C}
  11.11,                                  !- Zone Cooling Design Supply Air Temperature Difference {deltaC}
  SupplyAirTemperature,                   !- Zone Heating Design Supply Air Temperature Input Method
  40,                                     !- Zone Heating Design Supply Air Temperature {C}
  11.11,                                  !- Zone Heating Design Supply Air Temperature Difference {deltaC}
  0.0085,                                 !- Zone Cooling Design Supply Air Humidity Ratio {kg-H2O/kg-air}
  0.008,                                  !- Zone Heating Design Supply Air Humidity Ratio {kg-H2O/kg-air}
  ,                                       !- Zone Heating Sizing Factor
  ,                                       !- Zone Cooling Sizing Factor
  DesignDay,                              !- Cooling Design Air Flow Method
  ,                                       !- Cooling Design Air Flow Rate {m3/s}
  ,                                       !- Cooling Minimum Air Flow per Zone Floor Area {m3/s-m2}
  ,                                       !- Cooling Minimum Air Flow {m3/s}
  ,                                       !- Cooling Minimum Air Flow Fraction
  DesignDay,                              !- Heating Design Air Flow Method
  ,                                       !- Heating Design Air Flow Rate {m3/s}
  ,                                       !- Heating Maximum Air Flow per Zone Floor Area {m3/s-m2}
  ,                                       !- Heating Maximum Air Flow {m3/s}
  ,                                       !- Heating Maximum Air Flow Fraction
  ,                                       !- Design Zone Air Distribution Effectiveness in Cooling Mode
  ,                                       !- Design Zone Air Distribution Effectiveness in Heating Mode
  No,                                     !- Account for Dedicated Outdoor Air System
  NeutralSupplyAir,                       !- Dedicated Outdoor Air System Control Strategy
  autosize,                               !- Dedicated Outdoor Air Low Setpoint Temperature for Design {C}
  autosize;                               !- Dedicated Outdoor Air High Setpoint Temperature for Design {C}

OS:ZoneHVAC:EquipmentList,
  {2b9a8b9f-758c-40d6-a132-2daf1ef87128}, !- Handle
  Zone HVAC Equipment List 2,             !- Name
  {b9362dca-3df7-4e8d-8da9-587426d3ff9f}; !- Thermal Zone

OS:Space,
  {0698b6cd-d72b-4500-aadc-fdc5e979873d}, !- Handle
  garage space,                           !- Name
  ,                                       !- Space Type Name
  ,                                       !- Default Construction Set Name
  ,                                       !- Default Schedule Set Name
  -0,                                     !- Direction of Relative North {deg}
  0,                                      !- X Origin {m}
  0,                                      !- Y Origin {m}
  0,                                      !- Z Origin {m}
  ,                                       !- Building Story Name
  {b9362dca-3df7-4e8d-8da9-587426d3ff9f}, !- Thermal Zone Name
  ,                                       !- Part of Total Floor Area
  ,                                       !- Design Specification Outdoor Air Object Name
  {05a3aa45-6f43-4486-bc69-186a77d6a566}; !- Building Unit Name

OS:Surface,
  {2ac66f93-4e31-47f1-9b6b-bde03b20a81a}, !- Handle
  Surface 1,                              !- Name
  Floor,                                  !- Surface Type
  ,                                       !- Construction Name
  {0698b6cd-d72b-4500-aadc-fdc5e979873d}, !- Space Name
  Ground,                                 !- Outside Boundary Condition
  ,                                       !- Outside Boundary Condition Object
  NoSun,                                  !- Sun Exposure
  NoWind,                                 !- Wind Exposure
  ,                                       !- View Factor to Ground
  ,                                       !- Number of Vertices
  5.57695129776527, -3.048, 0,            !- X,Y,Z Vertex 1 {m}
  5.57695129776527, 3.048, 0,             !- X,Y,Z Vertex 2 {m}
  11.6729512977653, 3.048, 0,             !- X,Y,Z Vertex 3 {m}
  11.6729512977653, -3.048, 0;            !- X,Y,Z Vertex 4 {m}

OS:Surface,
  {1fb67572-feaa-4358-9d75-b73266be0b1f}, !- Handle
  Surface 2,                              !- Name
  Wall,                                   !- Surface Type
  ,                                       !- Construction Name
  {0698b6cd-d72b-4500-aadc-fdc5e979873d}, !- Space Name
  Surface,                                !- Outside Boundary Condition
  {1299ed99-2864-4d7b-bf92-43a99235fb35}, !- Outside Boundary Condition Object
  NoSun,                                  !- Sun Exposure
  NoWind,                                 !- Wind Exposure
  ,                                       !- View Factor to Ground
  ,                                       !- Number of Vertices
  5.57695129776527, 3.048, 2.4384,        !- X,Y,Z Vertex 1 {m}
  5.57695129776527, 3.048, 0,             !- X,Y,Z Vertex 2 {m}
  5.57695129776527, 0, 0,                 !- X,Y,Z Vertex 3 {m}
  5.57695129776527, 0, 2.4384;            !- X,Y,Z Vertex 4 {m}

OS:Surface,
  {c4d7c756-21fb-4b08-8601-b1f821c3ecf9}, !- Handle
  Surface 3,                              !- Name
  Wall,                                   !- Surface Type
  ,                                       !- Construction Name
  {0698b6cd-d72b-4500-aadc-fdc5e979873d}, !- Space Name
  Surface,                                !- Outside Boundary Condition
  {29c04a74-49b0-4799-9c6a-0a534299597b}, !- Outside Boundary Condition Object
  NoSun,                                  !- Sun Exposure
  NoWind,                                 !- Wind Exposure
  ,                                       !- View Factor to Ground
  ,                                       !- Number of Vertices
  11.6729512977653, 3.048, 2.4384,        !- X,Y,Z Vertex 1 {m}
  11.6729512977653, 3.048, 0,             !- X,Y,Z Vertex 2 {m}
  5.57695129776527, 3.048, 0,             !- X,Y,Z Vertex 3 {m}
  5.57695129776527, 3.048, 2.4384;        !- X,Y,Z Vertex 4 {m}

OS:Surface,
  {0c902292-0387-410c-bc7d-61dc0a842ed2}, !- Handle
  Surface 4,                              !- Name
  Wall,                                   !- Surface Type
  ,                                       !- Construction Name
  {0698b6cd-d72b-4500-aadc-fdc5e979873d}, !- Space Name
  Outdoors,                               !- Outside Boundary Condition
  ,                                       !- Outside Boundary Condition Object
  SunExposed,                             !- Sun Exposure
  WindExposed,                            !- Wind Exposure
  ,                                       !- View Factor to Ground
  ,                                       !- Number of Vertices
  11.6729512977653, -3.048, 2.4384,       !- X,Y,Z Vertex 1 {m}
  11.6729512977653, -3.048, 0,            !- X,Y,Z Vertex 2 {m}
  11.6729512977653, 3.048, 0,             !- X,Y,Z Vertex 3 {m}
  11.6729512977653, 3.048, 2.4384;        !- X,Y,Z Vertex 4 {m}

OS:Surface,
  {d2b9a0de-a626-45de-88bd-d7bdcfd162a6}, !- Handle
  Surface 5,                              !- Name
  Wall,                                   !- Surface Type
  ,                                       !- Construction Name
  {0698b6cd-d72b-4500-aadc-fdc5e979873d}, !- Space Name
  Outdoors,                               !- Outside Boundary Condition
  ,                                       !- Outside Boundary Condition Object
  SunExposed,                             !- Sun Exposure
  WindExposed,                            !- Wind Exposure
  ,                                       !- View Factor to Ground
  ,                                       !- Number of Vertices
  5.57695129776527, -3.048, 2.4384,       !- X,Y,Z Vertex 1 {m}
  5.57695129776527, -3.048, 0,            !- X,Y,Z Vertex 2 {m}
  11.6729512977653, -3.048, 0,            !- X,Y,Z Vertex 3 {m}
  11.6729512977653, -3.048, 2.4384;       !- X,Y,Z Vertex 4 {m}

OS:Surface,
  {7abad706-68da-4951-aa01-688930f04381}, !- Handle
  Surface 6,                              !- Name
  RoofCeiling,                            !- Surface Type
  ,                                       !- Construction Name
  {0698b6cd-d72b-4500-aadc-fdc5e979873d}, !- Space Name
  Surface,                                !- Outside Boundary Condition
  {0c5651aa-6972-43e9-98b5-dbbae4b7c294}, !- Outside Boundary Condition Object
  NoSun,                                  !- Sun Exposure
  NoWind,                                 !- Wind Exposure
  ,                                       !- View Factor to Ground
  ,                                       !- Number of Vertices
  11.6729512977653, -3.048, 2.4384,       !- X,Y,Z Vertex 1 {m}
  11.6729512977653, 3.048, 2.4384,        !- X,Y,Z Vertex 2 {m}
  5.57695129776527, 3.048, 2.4384,        !- X,Y,Z Vertex 3 {m}
  5.57695129776527, 0, 2.4384,            !- X,Y,Z Vertex 4 {m}
  5.57695129776527, -3.048, 2.4384;       !- X,Y,Z Vertex 5 {m}

OS:Space,
  {e406d890-ee8f-4040-93f1-0ae53bf287f1}, !- Handle
  living space,                           !- Name
  ,                                       !- Space Type Name
  ,                                       !- Default Construction Set Name
  ,                                       !- Default Schedule Set Name
  -0,                                     !- Direction of Relative North {deg}
  0,                                      !- X Origin {m}
  0,                                      !- Y Origin {m}
  0,                                      !- Z Origin {m}
  ,                                       !- Building Story Name
  {7e478df1-ef90-47aa-84f1-b44125e52138}, !- Thermal Zone Name
  ,                                       !- Part of Total Floor Area
  ,                                       !- Design Specification Outdoor Air Object Name
  {05a3aa45-6f43-4486-bc69-186a77d6a566}; !- Building Unit Name

OS:Surface,
  {6aede751-0ab3-4baf-b7c9-7db26d16531d}, !- Handle
  Surface 7,                              !- Name
  Floor,                                  !- Surface Type
  ,                                       !- Construction Name
  {e406d890-ee8f-4040-93f1-0ae53bf287f1}, !- Space Name
  Surface,                                !- Outside Boundary Condition
  {cb59d539-3986-4f22-81a2-3c10e36e1b43}, !- Outside Boundary Condition Object
  NoSun,                                  !- Sun Exposure
  NoWind,                                 !- Wind Exposure
  ,                                       !- View Factor to Ground
  ,                                       !- Number of Vertices
  0, 0, 0,                                !- X,Y,Z Vertex 1 {m}
  0, 5.83647564888264, 0,                 !- X,Y,Z Vertex 2 {m}
  11.6729512977653, 5.83647564888264, 0,  !- X,Y,Z Vertex 3 {m}
  11.6729512977653, 3.048, 0,             !- X,Y,Z Vertex 4 {m}
  5.57695129776527, 3.048, 0,             !- X,Y,Z Vertex 5 {m}
  5.57695129776527, 0, 0;                 !- X,Y,Z Vertex 6 {m}

OS:Surface,
  {13bca199-5987-4385-a57a-7399ee4c4e16}, !- Handle
  Surface 8,                              !- Name
  Wall,                                   !- Surface Type
  ,                                       !- Construction Name
  {e406d890-ee8f-4040-93f1-0ae53bf287f1}, !- Space Name
  Outdoors,                               !- Outside Boundary Condition
  ,                                       !- Outside Boundary Condition Object
  SunExposed,                             !- Sun Exposure
  WindExposed,                            !- Wind Exposure
  ,                                       !- View Factor to Ground
  ,                                       !- Number of Vertices
  0, 5.83647564888264, 2.4384,            !- X,Y,Z Vertex 1 {m}
  0, 5.83647564888264, 0,                 !- X,Y,Z Vertex 2 {m}
  0, 0, 0,                                !- X,Y,Z Vertex 3 {m}
  0, 0, 2.4384;                           !- X,Y,Z Vertex 4 {m}

OS:Surface,
  {1cd1efa9-7fab-451d-a31d-0ffaec4d2301}, !- Handle
  Surface 9,                              !- Name
  Wall,                                   !- Surface Type
  ,                                       !- Construction Name
  {e406d890-ee8f-4040-93f1-0ae53bf287f1}, !- Space Name
  Outdoors,                               !- Outside Boundary Condition
  ,                                       !- Outside Boundary Condition Object
  SunExposed,                             !- Sun Exposure
  WindExposed,                            !- Wind Exposure
  ,                                       !- View Factor to Ground
  ,                                       !- Number of Vertices
  11.6729512977653, 5.83647564888264, 2.4384, !- X,Y,Z Vertex 1 {m}
  11.6729512977653, 5.83647564888264, 0,  !- X,Y,Z Vertex 2 {m}
  0, 5.83647564888264, 0,                 !- X,Y,Z Vertex 3 {m}
  0, 5.83647564888264, 2.4384;            !- X,Y,Z Vertex 4 {m}

OS:Surface,
  {f37e016e-cafb-4078-85ab-91b1e79e394d}, !- Handle
  Surface 10,                             !- Name
  Wall,                                   !- Surface Type
  ,                                       !- Construction Name
  {e406d890-ee8f-4040-93f1-0ae53bf287f1}, !- Space Name
  Outdoors,                               !- Outside Boundary Condition
  ,                                       !- Outside Boundary Condition Object
  SunExposed,                             !- Sun Exposure
  WindExposed,                            !- Wind Exposure
  ,                                       !- View Factor to Ground
  ,                                       !- Number of Vertices
  11.6729512977653, 3.048, 2.4384,        !- X,Y,Z Vertex 1 {m}
  11.6729512977653, 3.048, 0,             !- X,Y,Z Vertex 2 {m}
  11.6729512977653, 5.83647564888264, 0,  !- X,Y,Z Vertex 3 {m}
  11.6729512977653, 5.83647564888264, 2.4384; !- X,Y,Z Vertex 4 {m}

OS:Surface,
  {29c04a74-49b0-4799-9c6a-0a534299597b}, !- Handle
  Surface 11,                             !- Name
  Wall,                                   !- Surface Type
  ,                                       !- Construction Name
  {e406d890-ee8f-4040-93f1-0ae53bf287f1}, !- Space Name
  Surface,                                !- Outside Boundary Condition
  {c4d7c756-21fb-4b08-8601-b1f821c3ecf9}, !- Outside Boundary Condition Object
  NoSun,                                  !- Sun Exposure
  NoWind,                                 !- Wind Exposure
  ,                                       !- View Factor to Ground
  ,                                       !- Number of Vertices
  5.57695129776527, 3.048, 2.4384,        !- X,Y,Z Vertex 1 {m}
  5.57695129776527, 3.048, 0,             !- X,Y,Z Vertex 2 {m}
  11.6729512977653, 3.048, 0,             !- X,Y,Z Vertex 3 {m}
  11.6729512977653, 3.048, 2.4384;        !- X,Y,Z Vertex 4 {m}

OS:Surface,
  {1299ed99-2864-4d7b-bf92-43a99235fb35}, !- Handle
  Surface 12,                             !- Name
  Wall,                                   !- Surface Type
  ,                                       !- Construction Name
  {e406d890-ee8f-4040-93f1-0ae53bf287f1}, !- Space Name
  Surface,                                !- Outside Boundary Condition
  {1fb67572-feaa-4358-9d75-b73266be0b1f}, !- Outside Boundary Condition Object
  NoSun,                                  !- Sun Exposure
  NoWind,                                 !- Wind Exposure
  ,                                       !- View Factor to Ground
  ,                                       !- Number of Vertices
  5.57695129776527, 0, 2.4384,            !- X,Y,Z Vertex 1 {m}
  5.57695129776527, 0, 0,                 !- X,Y,Z Vertex 2 {m}
  5.57695129776527, 3.048, 0,             !- X,Y,Z Vertex 3 {m}
  5.57695129776527, 3.048, 2.4384;        !- X,Y,Z Vertex 4 {m}

OS:Surface,
  {5140c184-2dbc-4821-b331-3c7c687110a3}, !- Handle
  Surface 13,                             !- Name
  Wall,                                   !- Surface Type
  ,                                       !- Construction Name
  {e406d890-ee8f-4040-93f1-0ae53bf287f1}, !- Space Name
  Outdoors,                               !- Outside Boundary Condition
  ,                                       !- Outside Boundary Condition Object
  SunExposed,                             !- Sun Exposure
  WindExposed,                            !- Wind Exposure
  ,                                       !- View Factor to Ground
  ,                                       !- Number of Vertices
  0, 0, 2.4384,                           !- X,Y,Z Vertex 1 {m}
  0, 0, 0,                                !- X,Y,Z Vertex 2 {m}
  5.57695129776527, 0, 0,                 !- X,Y,Z Vertex 3 {m}
  5.57695129776527, 0, 2.4384;            !- X,Y,Z Vertex 4 {m}

OS:Surface,
  {fb9605c0-4d53-4963-9782-6e6d16188407}, !- Handle
  Surface 14,                             !- Name
  RoofCeiling,                            !- Surface Type
  ,                                       !- Construction Name
  {e406d890-ee8f-4040-93f1-0ae53bf287f1}, !- Space Name
  Surface,                                !- Outside Boundary Condition
  {9d654e95-50f8-44b3-956b-38b70c5983ee}, !- Outside Boundary Condition Object
  NoSun,                                  !- Sun Exposure
  NoWind,                                 !- Wind Exposure
  ,                                       !- View Factor to Ground
  ,                                       !- Number of Vertices
  5.57695129776527, 0, 2.4384,            !- X,Y,Z Vertex 1 {m}
  5.57695129776527, 3.048, 2.4384,        !- X,Y,Z Vertex 2 {m}
  11.6729512977653, 3.048, 2.4384,        !- X,Y,Z Vertex 3 {m}
  11.6729512977653, 5.83647564888264, 2.4384, !- X,Y,Z Vertex 4 {m}
  0, 5.83647564888264, 2.4384,            !- X,Y,Z Vertex 5 {m}
  0, 0, 2.4384;                           !- X,Y,Z Vertex 6 {m}

OS:Space,
  {0c63be21-d673-4b84-8fa8-4279624edc9d}, !- Handle
  living space|story 2,                   !- Name
  ,                                       !- Space Type Name
  ,                                       !- Default Construction Set Name
  ,                                       !- Default Schedule Set Name
  -0,                                     !- Direction of Relative North {deg}