!- NOTE: Auto-generated from /test/osw_files/SFD_2000sqft_2story_SL_UA_AllLayersButWallInsulation_CeilingIns.osw

OS:Version,
  {06bed3cc-468f-4029-aa5a-fd569f4f1841}, !- Handle
  2.2.0;                                  !- Version Identifier

OS:Building,
  {bf305633-c5a1-4881-9edf-ca5e1a8e1274}, !- Handle
  Building,                               !- Name
  ,                                       !- Building Sector Type
  ,                                       !- North Axis {deg}
  ,                                       !- Nominal Floor to Floor Height {m}
  ,                                       !- Space Type Name
  ,                                       !- Default Construction Set Name
  ,                                       !- Default Schedule Set Name
  2,                                      !- Standards Number of Stories
  2,                                      !- Standards Number of Above Ground Stories
  singlefamilydetached,                   !- Standards Building Type
  1;                                      !- Standards Number of Living Units

OS:YearDescription,
  {513d8dda-86cb-442a-b01c-1f7f0e0ac70e}; !- Handle

OS:SimulationControl,
  {2c487a4c-bac9-4ac5-b669-1e49d9da7c2b}, !- Handle
  ,                                       !- Do Zone Sizing Calculation
  ,                                       !- Do System Sizing Calculation
  ,                                       !- Do Plant Sizing Calculation
  No,                                     !- Run Simulation for Sizing Periods
  ;                                       !- Run Simulation for Weather File Run Periods

OS:Timestep,
  {4ebc9f1e-4707-402e-9844-67eb1ffbd522}, !- Handle
  6;                                      !- Number of Timesteps per Hour

OS:RunPeriod,
  {28df894d-6af9-4fb8-8f56-df1753344aa3}, !- Handle
  Run Period,                             !- Name
  1,                                      !- Begin Month
  1,                                      !- Begin Day of Month
  12,                                     !- End Month
  31,                                     !- End Day of Month
  ,                                       !- Use Weather File Holidays and Special Days
  ,                                       !- Use Weather File Daylight Saving Period
  ,                                       !- Apply Weekend Holiday Rule
  ,                                       !- Use Weather File Rain Indicators
  ,                                       !- Use Weather File Snow Indicators
  ;                                       !- Number of Times Runperiod to be Repeated

OS:Sizing:Parameters,
  {dde5af6f-7923-4600-a28a-7556673a0266}, !- Handle
  1.0,                                    !- Heating Sizing Factor
  1.0;                                    !- Cooling Sizing Factor

OS:ShadowCalculation,
  {ca758bea-4416-4626-9bba-3d8795c79bd6}, !- Handle
  20,                                     !- Calculation Frequency
  200;                                    !- Maximum Figures in Shadow Overlap Calculations

OS:SurfaceConvectionAlgorithm:Inside,
  {aaabfc36-718a-4ab0-b622-f186ebb45230}, !- Handle
  TARP;                                   !- Algorithm

OS:SurfaceConvectionAlgorithm:Outside,
  {9a0a9f6f-4bbd-4b12-a121-9492a1fcd7d6}, !- Handle
  DOE-2;                                  !- Algorithm

OS:HeatBalanceAlgorithm,
  {9d93e563-e1e0-46d7-9e39-d1c8aceb7212}, !- Handle
  ConductionTransferFunction,             !- Algorithm
  200;                                    !- Surface Temperature Upper Limit {C}

OS:ZoneCapacitanceMultiplier:ResearchSpecial,
  {6bfced16-b16f-47f6-8223-f7e267d75d19}, !- Handle
  ,                                       !- Temperature Capacity Multiplier
  15,                                     !- Humidity Capacity Multiplier
  ;                                       !- Carbon Dioxide Capacity Multiplier

OS:ThermalZone,
  {9976ecb4-ae62-482b-aa2e-078e0461e729}, !- Handle
  Thermal Zone 1,                         !- Name
  ,                                       !- Multiplier
  ,                                       !- Ceiling Height {m}
  ,                                       !- Volume {m3}
  ,                                       !- Floor Area {m2}
  ,                                       !- Zone Inside Convection Algorithm
  ,                                       !- Zone Outside Convection Algorithm
  ,                                       !- Zone Conditioning Equipment List Name
  {a635c440-a216-4ebb-8ebf-88136c786e77}, !- Zone Air Inlet Port List
  {256eba95-80e1-42ec-8363-8c4b4c2cb6f4}, !- Zone Air Exhaust Port List
  {2d6a09f8-8f4b-4ba7-8961-e5795cbe5cde}, !- Zone Air Node Name
  ,                                       !- Zone Return Air Node Name
  ,                                       !- Primary Daylighting Control Name
  ,                                       !- Fraction of Zone Controlled by Primary Daylighting Control
  ,                                       !- Secondary Daylighting Control Name
  ,                                       !- Fraction of Zone Controlled by Secondary Daylighting Control
  ,                                       !- Illuminance Map Name
  ,                                       !- Group Rendering Name
  ,                                       !- Thermostat Name
  No;                                     !- Use Ideal Air Loads

OS:Node,
  {0953266c-e845-4edd-bb49-76df6daa75d3}, !- Handle
  Node 1,                                 !- Name
  {2d6a09f8-8f4b-4ba7-8961-e5795cbe5cde}, !- Inlet Port
  ;                                       !- Outlet Port

OS:Connection,
  {2d6a09f8-8f4b-4ba7-8961-e5795cbe5cde}, !- Handle
  {38a2452f-07d6-4327-9f82-f14b17286193}, !- Name
  {9976ecb4-ae62-482b-aa2e-078e0461e729}, !- Source Object
  11,                                     !- Outlet Port
  {0953266c-e845-4edd-bb49-76df6daa75d3}, !- Target Object
  2;                                      !- Inlet Port

OS:PortList,
  {a635c440-a216-4ebb-8ebf-88136c786e77}, !- Handle
  {d725e0d5-f773-404b-b69f-8fdfe38e3b2c}, !- Name
  {9976ecb4-ae62-482b-aa2e-078e0461e729}; !- HVAC Component

OS:PortList,
  {256eba95-80e1-42ec-8363-8c4b4c2cb6f4}, !- Handle
  {45a1001c-5df6-4a68-bf99-166b6eada9c9}, !- Name
  {9976ecb4-ae62-482b-aa2e-078e0461e729}; !- HVAC Component

OS:Sizing:Zone,
  {e8717056-be5a-47dc-954f-3ff76343d21d}, !- Handle
  {9976ecb4-ae62-482b-aa2e-078e0461e729}, !- Zone or ZoneList Name
  SupplyAirTemperature,                   !- Zone Cooling Design Supply Air Temperature Input Method
  14,                                     !- Zone Cooling Design Supply Air Temperature {C}
  11.11,                                  !- Zone Cooling Design Supply Air Temperature Difference {deltaC}
  SupplyAirTemperature,                   !- Zone Heating Design Supply Air Temperature Input Method
  40,                                     !- Zone Heating Design Supply Air Temperature {C}
  11.11,                                  !- Zone Heating Design Supply Air Temperature Difference {deltaC}
  0.0085,                                 !- Zone Cooling Design Supply Air Humidity Ratio {kg-H2O/kg-air}
  0.008,                                  !- Zone Heating Design Supply Air Humidity Ratio {kg-H2O/kg-air}
  ,                                       !- Zone Heating Sizing Factor
  ,                                       !- Zone Cooling Sizing Factor
  DesignDay,                              !- Cooling Design Air Flow Method
  ,                                       !- Cooling Design Air Flow Rate {m3/s}
  ,                                       !- Cooling Minimum Air Flow per Zone Floor Area {m3/s-m2}
  ,                                       !- Cooling Minimum Air Flow {m3/s}
  ,                                       !- Cooling Minimum Air Flow Fraction
  DesignDay,                              !- Heating Design Air Flow Method
  ,                                       !- Heating Design Air Flow Rate {m3/s}
  ,                                       !- Heating Maximum Air Flow per Zone Floor Area {m3/s-m2}
  ,                                       !- Heating Maximum Air Flow {m3/s}
  ,                                       !- Heating Maximum Air Flow Fraction
  ,                                       !- Design Zone Air Distribution Effectiveness in Cooling Mode
  ,                                       !- Design Zone Air Distribution Effectiveness in Heating Mode
  No,                                     !- Account for Dedicated Outdoor Air System
  NeutralSupplyAir,                       !- Dedicated Outdoor Air System Control Strategy
  autosize,                               !- Dedicated Outdoor Air Low Setpoint Temperature for Design {C}
  autosize;                               !- Dedicated Outdoor Air High Setpoint Temperature for Design {C}

OS:ZoneHVAC:EquipmentList,
  {fc5df2c5-cdb8-4410-858e-ef5bcc914369}, !- Handle
  Zone HVAC Equipment List 1,             !- Name
  {9976ecb4-ae62-482b-aa2e-078e0461e729}; !- Thermal Zone

OS:Space,
  {fc2d2dd7-de79-45a8-84d7-b914e2eaacbf}, !- Handle
  Space 1,                                !- Name
  {6d9a0a17-37d5-40e3-ad87-a9d1908246e7}, !- Space Type Name
  ,                                       !- Default Construction Set Name
  ,                                       !- Default Schedule Set Name
  -0,                                     !- Direction of Relative North {deg}
  0,                                      !- X Origin {m}
  0,                                      !- Y Origin {m}
  0,                                      !- Z Origin {m}
  ,                                       !- Building Story Name
  {9976ecb4-ae62-482b-aa2e-078e0461e729}, !- Thermal Zone Name
  ,                                       !- Part of Total Floor Area
  ,                                       !- Design Specification Outdoor Air Object Name
  {c22d1a18-82df-4f26-9ad8-4a3a45334d3b}; !- Building Unit Name

OS:Surface,
  {aec2cc19-90ab-464e-b0a8-90022e5c5595}, !- Handle
  Surface 1,                              !- Name
  Floor,                                  !- Surface Type
  ,                                       !- Construction Name
  {fc2d2dd7-de79-45a8-84d7-b914e2eaacbf}, !- Space Name
  Ground,                                 !- Outside Boundary Condition
  ,                                       !- Outside Boundary Condition Object
  NoSun,                                  !- Sun Exposure
  NoWind,                                 !- Wind Exposure
  ,                                       !- View Factor to Ground
  ,                                       !- Number of Vertices
  0, 0, 0,                                !- X,Y,Z Vertex 1 {m}
  0, 6.81553519541936, 0,                 !- X,Y,Z Vertex 2 {m}
  13.6310703908387, 6.81553519541936, 0,  !- X,Y,Z Vertex 3 {m}
  13.6310703908387, 0, 0;                 !- X,Y,Z Vertex 4 {m}

OS:Surface,
  {84a5203f-7edb-4993-a260-4166cd89dd00}, !- Handle
  Surface 2,                              !- Name
  Wall,                                   !- Surface Type
  {ffe12ccc-5413-478a-96bd-e4216dfcc41f}, !- Construction Name
  {fc2d2dd7-de79-45a8-84d7-b914e2eaacbf}, !- Space Name
  Outdoors,                               !- Outside Boundary Condition
  ,                                       !- Outside Boundary Condition Object
  SunExposed,                             !- Sun Exposure
  WindExposed,                            !- Wind Exposure
  ,                                       !- View Factor to Ground
  ,                                       !- Number of Vertices
  0, 6.81553519541936, 2.4384,            !- X,Y,Z Vertex 1 {m}
  0, 6.81553519541936, 0,                 !- X,Y,Z Vertex 2 {m}
  0, 0, 0,                                !- X,Y,Z Vertex 3 {m}
  0, 0, 2.4384;                           !- X,Y,Z Vertex 4 {m}

OS:Surface,
  {e7573d3e-dd6d-493d-b869-e1d3bfdcd47d}, !- Handle
  Surface 3,                              !- Name
  Wall,                                   !- Surface Type
  {ffe12ccc-5413-478a-96bd-e4216dfcc41f}, !- Construction Name
  {fc2d2dd7-de79-45a8-84d7-b914e2eaacbf}, !- Space Name
  Outdoors,                               !- Outside Boundary Condition
  ,                                       !- Outside Boundary Condition Object
  SunExposed,                             !- Sun Exposure
  WindExposed,                            !- Wind Exposure
  ,                                       !- View Factor to Ground
  ,                                       !- Number of Vertices
  13.6310703908387, 6.81553519541936, 2.4384, !- X,Y,Z Vertex 1 {m}
  13.6310703908387, 6.81553519541936, 0,  !- X,Y,Z Vertex 2 {m}
  0, 6.81553519541936, 0,                 !- X,Y,Z Vertex 3 {m}
  0, 6.81553519541936, 2.4384;            !- X,Y,Z Vertex 4 {m}

OS:Surface,
  {0c783b1c-696c-43ad-a63e-0a4ef71addde}, !- Handle
  Surface 4,                              !- Name
  Wall,                                   !- Surface Type
  {ffe12ccc-5413-478a-96bd-e4216dfcc41f}, !- Construction Name
  {fc2d2dd7-de79-45a8-84d7-b914e2eaacbf}, !- Space Name
  Outdoors,                               !- Outside Boundary Condition
  ,                                       !- Outside Boundary Condition Object
  SunExposed,                             !- Sun Exposure
  WindExposed,                            !- Wind Exposure
  ,                                       !- View Factor to Ground
  ,                                       !- Number of Vertices
  13.6310703908387, 0, 2.4384,            !- X,Y,Z Vertex 1 {m}
  13.6310703908387, 0, 0,                 !- X,Y,Z Vertex 2 {m}
  13.6310703908387, 6.81553519541936, 0,  !- X,Y,Z Vertex 3 {m}
  13.6310703908387, 6.81553519541936, 2.4384; !- X,Y,Z Vertex 4 {m}

OS:Surface,
  {c0f82585-5168-4163-ba64-069f242a0374}, !- Handle
  Surface 5,                              !- Name
  Wall,                                   !- Surface Type
  {ffe12ccc-5413-478a-96bd-e4216dfcc41f}, !- Construction Name
  {fc2d2dd7-de79-45a8-84d7-b914e2eaacbf}, !- Space Name
  Outdoors,                               !- Outside Boundary Condition
  ,                                       !- Outside Boundary Condition Object
  SunExposed,                             !- Sun Exposure
  WindExposed,                            !- Wind Exposure
  ,                                       !- View Factor to Ground
  ,                                       !- Number of Vertices
  0, 0, 2.4384,                           !- X,Y,Z Vertex 1 {m}
  0, 0, 0,                                !- X,Y,Z Vertex 2 {m}
  13.6310703908387, 0, 0,                 !- X,Y,Z Vertex 3 {m}
  13.6310703908387, 0, 2.4384;            !- X,Y,Z Vertex 4 {m}

OS:Surface,
  {1815ca8e-77c5-4b63-9478-4f4dc71f2ed7}, !- Handle
  Surface 6,                              !- Name
  RoofCeiling,                            !- Surface Type
  ,                                       !- Construction Name
  {fc2d2dd7-de79-45a8-84d7-b914e2eaacbf}, !- Space Name
  Surface,                                !- Outside Boundary Condition
  {8036f67e-8617-46c0-aa12-fb84e1aa10ad}, !- Outside Boundary Condition Object
  NoSun,                                  !- Sun Exposure
  NoWind,                                 !- Wind Exposure
  ,                                       !- View Factor to Ground
  ,                                       !- Number of Vertices
  13.6310703908387, 0, 2.4384,            !- X,Y,Z Vertex 1 {m}
  13.6310703908387, 6.81553519541936, 2.4384, !- X,Y,Z Vertex 2 {m}
  0, 6.81553519541936, 2.4384,            !- X,Y,Z Vertex 3 {m}
  0, 0, 2.4384;                           !- X,Y,Z Vertex 4 {m}

OS:SpaceType,
  {6d9a0a17-37d5-40e3-ad87-a9d1908246e7}, !- Handle
  Space Type 1,                           !- Name
  ,                                       !- Default Construction Set Name
  ,                                       !- Default Schedule Set Name
  ,                                       !- Group Rendering Name
  ,                                       !- Design Specification Outdoor Air Object Name
  ,                                       !- Standards Building Type
  living;                                 !- Standards Space Type

OS:Space,
  {de3a65c0-2e88-41d5-9e76-dd084f38e5af}, !- Handle
  Space 2,                                !- Name
  {6d9a0a17-37d5-40e3-ad87-a9d1908246e7}, !- Space Type Name
  ,                                       !- Default Construction Set Name
  ,                                       !- Default Schedule Set Name
  -0,                                     !- Direction of Relative North {deg}
  0,                                      !- X Origin {m}
  0,                                      !- Y Origin {m}
  2.4384,                                 !- Z Origin {m}
  ,                                       !- Building Story Name
  {9976ecb4-ae62-482b-aa2e-078e0461e729}, !- Thermal Zone Name
  ,                                       !- Part of Total Floor Area
  ,                                       !- Design Specification Outdoor Air Object Name
  {c22d1a18-82df-4f26-9ad8-4a3a45334d3b}; !- Building Unit Name

OS:Surface,
  {8036f67e-8617-46c0-aa12-fb84e1aa10ad}, !- Handle
  Surface 7,                              !- Name
  Floor,                                  !- Surface Type
  ,                                       !- Construction Name
  {de3a65c0-2e88-41d5-9e76-dd084f38e5af}, !- Space Name
  Surface,                                !- Outside Boundary Condition
  {1815ca8e-77c5-4b63-9478-4f4dc71f2ed7}, !- Outside Boundary Condition Object
  NoSun,                                  !- Sun Exposure
  NoWind,                                 !- Wind Exposure
  ,                                       !- View Factor to Ground
  ,                                       !- Number of Vertices
  0, 0, 0,                                !- X,Y,Z Vertex 1 {m}
  0, 6.81553519541936, 0,                 !- X,Y,Z Vertex 2 {m}
  13.6310703908387, 6.81553519541936, 0,  !- X,Y,Z Vertex 3 {m}
  13.6310703908387, 0, 0;                 !- X,Y,Z Vertex 4 {m}

OS:Surface,
  {01f5a336-65b0-446c-8ef2-0be2e7f7354c}, !- Handle
  Surface 8,                              !- Name
  Wall,                                   !- Surface Type
  {ffe12ccc-5413-478a-96bd-e4216dfcc41f}, !- Construction Name
  {de3a65c0-2e88-41d5-9e76-dd084f38e5af}, !- Space Name
  Outdoors,                               !- Outside Boundary Condition
  ,                                       !- Outside Boundary Condition Object
  SunExposed,                             !- Sun Exposure
  WindExposed,                            !- Wind Exposure
  ,                                       !- View Factor to Ground
  ,                                       !- Number of Vertices
  0, 6.81553519541936, 2.4384,            !- X,Y,Z Vertex 1 {m}
  0, 6.81553519541936, 0,                 !- X,Y,Z Vertex 2 {m}
  0, 0, 0,                                !- X,Y,Z Vertex 3 {m}
  0, 0, 2.4384;                           !- X,Y,Z Vertex 4 {m}

OS:Surface,
  {c8aa5ef1-ad24-445e-8f63-e8595daf10df}, !- Handle
  Surface 9,                              !- Name
  Wall,                                   !- Surface Type
  {ffe12ccc-5413-478a-96bd-e4216dfcc41f}, !- Construction Name
  {de3a65c0-2e88-41d5-9e76-dd084f38e5af}, !- Space Name
  Outdoors,                               !- Outside Boundary Condition
  ,                                       !- Outside Boundary Condition Object
  SunExposed,                             !- Sun Exposure
  WindExposed,                            !- Wind Exposure
  ,                                       !- View Factor to Ground
  ,                                       !- Number of Vertices
  13.6310703908387, 6.81553519541936, 2.4384, !- X,Y,Z Vertex 1 {m}
  13.6310703908387, 6.81553519541936, 0,  !- X,Y,Z Vertex 2 {m}
  0, 6.81553519541936, 0,                 !- X,Y,Z Vertex 3 {m}
  0, 6.81553519541936, 2.4384;            !- X,Y,Z Vertex 4 {m}

OS:Surface,
  {0bcc5b0a-f8f7-4e80-b34c-18736681d8f6}, !- Handle
  Surface 10,                             !- Name
  Wall,                                   !- Surface Type
  {ffe12ccc-5413-478a-96bd-e4216dfcc41f}, !- Construction Name
  {de3a65c0-2e88-41d5-9e76-dd084f38e5af}, !- Space Name
  Outdoors,                               !- Outside Boundary Condition
  ,                                       !- Outside Boundary Condition Object
  SunExposed,                             !- Sun Exposure
  WindExposed,                            !- Wind Exposure
  ,                                       !- View Factor to Ground
  ,                                       !- Number of Vertices
  13.6310703908387, 0, 2.4384,            !- X,Y,Z Vertex 1 {m}
  13.6310703908387, 0, 0,                 !- X,Y,Z Vertex 2 {m}
  13.6310703908387, 6.81553519541936, 0,  !- X,Y,Z Vertex 3 {m}
  13.6310703908387, 6.81553519541936, 2.4384; !- X,Y,Z Vertex 4 {m}

OS:Surface,
  {1abde5e1-f1d7-4f17-85d0-4b3010f052f6}, !- Handle
  Surface 11,                             !- Name
  Wall,                                   !- Surface Type
  {ffe12ccc-5413-478a-96bd-e4216dfcc41f}, !- Construction Name
  {de3a65c0-2e88-41d5-9e76-dd084f38e5af}, !- Space Name
  Outdoors,                               !- Outside Boundary Condition
  ,                                       !- Outside Boundary Condition Object
  SunExposed,                             !- Sun Exposure
  WindExposed,                            !- Wind Exposure
  ,                                       !- View Factor to Ground
  ,                                       !- Number of Vertices
  0, 0, 2.4384,                           !- X,Y,Z Vertex 1 {m}
  0, 0, 0,                                !- X,Y,Z Vertex 2 {m}
  13.6310703908387, 0, 0,                 !- X,Y,Z Vertex 3 {m}
  13.6310703908387, 0, 2.4384;            !- X,Y,Z Vertex 4 {m}

OS:Surface,
  {fe69271e-6759-422c-b1db-f3897cf933da}, !- Handle
  Surface 12,                             !- Name
  RoofCeiling,                            !- Surface Type
  {3ddf72e0-7c9c-43de-942b-b36a9e338244}, !- Construction Name
  {de3a65c0-2e88-41d5-9e76-dd084f38e5af}, !- Space Name
  Surface,                                !- Outside Boundary Condition
  {d80f3fd7-86f1-4ffb-ac47-3437be840669}, !- Outside Boundary Condition Object
  NoSun,                                  !- Sun Exposure
  NoWind,                                 !- Wind Exposure
  ,                                       !- View Factor to Ground
  ,                                       !- Number of Vertices
  13.6310703908387, 0, 2.4384,            !- X,Y,Z Vertex 1 {m}
  13.6310703908387, 6.81553519541936, 2.4384, !- X,Y,Z Vertex 2 {m}
  0, 6.81553519541936, 2.4384,            !- X,Y,Z Vertex 3 {m}
  0, 0, 2.4384;                           !- X,Y,Z Vertex 4 {m}

OS:Surface,
  {d80f3fd7-86f1-4ffb-ac47-3437be840669}, !- Handle
  Surface 13,                             !- Name
  Floor,                                  !- Surface Type
  {cdf2076c-2e6b-4153-9a29-21c375d4f24a}, !- Construction Name
  {cfa550e0-7864-4791-87db-ca286bdb2993}, !- Space Name
  Surface,                                !- Outside Boundary Condition
  {fe69271e-6759-422c-b1db-f3897cf933da}, !- Outside Boundary Condition Object
  NoSun,                                  !- Sun Exposure
  NoWind,                                 !- Wind Exposure
  ,                                       !- View Factor to Ground
  ,                                       !- Number of Vertices
  0, 6.81553519541936, 0,                 !- X,Y,Z Vertex 1 {m}
  13.6310703908387, 6.81553519541936, 0,  !- X,Y,Z Vertex 2 {m}
  13.6310703908387, 0, 0,                 !- X,Y,Z Vertex 3 {m}
  0, 0, 0;                                !- X,Y,Z Vertex 4 {m}

OS:Surface,
  {60c5d1d4-74be-48c5-ad07-38a254f8759b}, !- Handle
  Surface 14,                             !- Name
  RoofCeiling,                            !- Surface Type
  {63181d62-6803-4c98-9ac2-17a14c8b9edd}, !- Construction Name
  {cfa550e0-7864-4791-87db-ca286bdb2993}, !- Space Name
  Outdoors,                               !- Outside Boundary Condition
  ,                                       !- Outside Boundary Condition Object
  SunExposed,                             !- Sun Exposure
  WindExposed,                            !- Wind Exposure
  ,                                       !- View Factor to Ground
  ,                                       !- Number of Vertices
  13.6310703908387, 3.40776759770968, 1.70388379885484, !- X,Y,Z Vertex 1 {m}
  0, 3.40776759770968, 1.70388379885484,  !- X,Y,Z Vertex 2 {m}
  0, 0, 0,                                !- X,Y,Z Vertex 3 {m}
  13.6310703908387, 0, 0;                 !- X,Y,Z Vertex 4 {m}

OS:Surface,
  {65677449-7144-4226-8b82-e53a76f722fa}, !- Handle
  Surface 15,                             !- Name
  RoofCeiling,                            !- Surface Type
  {63181d62-6803-4c98-9ac2-17a14c8b9edd}, !- Construction Name
  {cfa550e0-7864-4791-87db-ca286bdb2993}, !- Space Name
  Outdoors,                               !- Outside Boundary Condition
  ,                                       !- Outside Boundary Condition Object
  SunExposed,                             !- Sun Exposure
  WindExposed,                            !- Wind Exposure
  ,                                       !- View Factor to Ground
  ,                                       !- Number of Vertices
  0, 3.40776759770968, 1.70388379885484,  !- X,Y,Z Vertex 1 {m}
  13.6310703908387, 3.40776759770968, 1.70388379885484, !- X,Y,Z Vertex 2 {m}
  13.6310703908387, 6.81553519541936, 0,  !- X,Y,Z Vertex 3 {m}
  0, 6.81553519541936, 0;                 !- X,Y,Z Vertex 4 {m}

OS:Surface,
  {cc3e8ca2-8143-4c2d-918c-9727554a1610}, !- Handle
  Surface 16,                             !- Name
  Wall,                                   !- Surface Type
  {2def3288-bec3-4af5-8b14-ebea24713239}, !- Construction Name
  {cfa550e0-7864-4791-87db-ca286bdb2993}, !- Space Name
  Outdoors,                               !- Outside Boundary Condition
  ,                                       !- Outside Boundary Condition Object
  SunExposed,                             !- Sun Exposure
  WindExposed,                            !- Wind Exposure
  ,                                       !- View Factor to Ground
  ,                                       !- Number of Vertices
  0, 3.40776759770968, 1.70388379885484,  !- X,Y,Z Vertex 1 {m}
  0, 6.81553519541936, 0,                 !- X,Y,Z Vertex 2 {m}
  0, 0, 0;                                !- X,Y,Z Vertex 3 {m}

OS:Surface,
  {32c54b60-971a-4387-ab38-ad15b99fe531}, !- Handle
  Surface 17,                             !- Name
  Wall,                                   !- Surface Type
  {2def3288-bec3-4af5-8b14-ebea24713239}, !- Construction Name
  {cfa550e0-7864-4791-87db-ca286bdb2993}, !- Space Name
  Outdoors,                               !- Outside Boundary Condition
  ,                                       !- Outside Boundary Condition Object
  SunExposed,                             !- Sun Exposure
  WindExposed,                            !- Wind Exposure
  ,                                       !- View Factor to Ground
  ,                                       !- Number of Vertices
  13.6310703908387, 3.40776759770968, 1.70388379885484, !- X,Y,Z Vertex 1 {m}
  13.6310703908387, 0, 0,                 !- X,Y,Z Vertex 2 {m}
  13.6310703908387, 6.81553519541936, 0;  !- X,Y,Z Vertex 3 {m}

OS:Space,
  {cfa550e0-7864-4791-87db-ca286bdb2993}, !- Handle
  Space 3,                                !- Name
  {748dd25e-ea39-4af6-af7c-8de7c44c6d52}, !- Space Type Name
  ,                                       !- Default Construction Set Name
  ,                                       !- Default Schedule Set Name
  -0,                                     !- Direction of Relative North {deg}
  0,                                      !- X Origin {m}
  0,                                      !- Y Origin {m}
  4.8768,                                 !- Z Origin {m}
  ,                                       !- Building Story Name
  {563e3223-9349-49e7-9876-51b5bb3e4b69}, !- Thermal Zone Name
  ,                                       !- Part of Total Floor Area
  ,                                       !- Design Specification Outdoor Air Object Name
  {c22d1a18-82df-4f26-9ad8-4a3a45334d3b}; !- Building Unit Name

OS:ThermalZone,
  {563e3223-9349-49e7-9876-51b5bb3e4b69}, !- Handle
  Thermal Zone 2,                         !- Name
  ,                                       !- Multiplier
  ,                                       !- Ceiling Height {m}
  ,                                       !- Volume {m3}
  ,                                       !- Floor Area {m2}
  ,                                       !- Zone Inside Convection Algorithm
  ,                                       !- Zone Outside Convection Algorithm
  ,                                       !- Zone Conditioning Equipment List Name
  {3f334dd8-c371-433d-8427-f92b2bb0d6f4}, !- Zone Air Inlet Port List
  {c69bc475-df9b-46f9-a70d-c7c205c6a10b}, !- Zone Air Exhaust Port List
  {2e19a56c-d360-45dd-bc66-85d4e54cce6f}, !- Zone Air Node Name
  ,                                       !- Zone Return Air Node Name
  ,                                       !- Primary Daylighting Control Name
  ,                                       !- Fraction of Zone Controlled by Primary Daylighting Control
  ,                                       !- Secondary Daylighting Control Name
  ,                                       !- Fraction of Zone Controlled by Secondary Daylighting Control
  ,                                       !- Illuminance Map Name
  ,                                       !- Group Rendering Name
  ,                                       !- Thermostat Name
  No;                                     !- Use Ideal Air Loads

OS:Node,
  {17e1efbe-314a-4abc-8aaf-488561c05a59}, !- Handle
  Node 2,                                 !- Name