!- NOTE: Auto-generated from /test/osw_files/SFD_2000sqft_2story_SL_UA_CeilingIns.osw

OS:Version,
  {fc003c06-618b-4051-9b37-6b6f71b12672}, !- Handle
  2.2.0;                                  !- Version Identifier

OS:Building,
  {bf305633-c5a1-4881-9edf-ca5e1a8e1274}, !- Handle
  Building,                               !- Name
  ,                                       !- Building Sector Type
  ,                                       !- North Axis {deg}
  ,                                       !- Nominal Floor to Floor Height {m}
  ,                                       !- Space Type Name
  ,                                       !- Default Construction Set Name
  ,                                       !- Default Schedule Set Name
  2,                                      !- Standards Number of Stories
  2,                                      !- Standards Number of Above Ground Stories
  singlefamilydetached,                   !- Standards Building Type
  1;                                      !- Standards Number of Living Units

OS:YearDescription,
  {513d8dda-86cb-442a-b01c-1f7f0e0ac70e}; !- Handle

OS:SimulationControl,
  {2c487a4c-bac9-4ac5-b669-1e49d9da7c2b}, !- Handle
  ,                                       !- Do Zone Sizing Calculation
  ,                                       !- Do System Sizing Calculation
  ,                                       !- Do Plant Sizing Calculation
  No,                                     !- Run Simulation for Sizing Periods
  ;                                       !- Run Simulation for Weather File Run Periods

OS:Timestep,
  {4ebc9f1e-4707-402e-9844-67eb1ffbd522}, !- Handle
  6;                                      !- Number of Timesteps per Hour

OS:RunPeriod,
  {28df894d-6af9-4fb8-8f56-df1753344aa3}, !- Handle
  Run Period,                             !- Name
  1,                                      !- Begin Month
  1,                                      !- Begin Day of Month
  12,                                     !- End Month
  31,                                     !- End Day of Month
  ,                                       !- Use Weather File Holidays and Special Days
  ,                                       !- Use Weather File Daylight Saving Period
  ,                                       !- Apply Weekend Holiday Rule
  ,                                       !- Use Weather File Rain Indicators
  ,                                       !- Use Weather File Snow Indicators
  ;                                       !- Number of Times Runperiod to be Repeated

OS:Sizing:Parameters,
  {dde5af6f-7923-4600-a28a-7556673a0266}, !- Handle
  1.0,                                    !- Heating Sizing Factor
  1.0;                                    !- Cooling Sizing Factor

OS:ShadowCalculation,
  {ca758bea-4416-4626-9bba-3d8795c79bd6}, !- Handle
  20,                                     !- Calculation Frequency
  200;                                    !- Maximum Figures in Shadow Overlap Calculations

OS:SurfaceConvectionAlgorithm:Inside,
  {aaabfc36-718a-4ab0-b622-f186ebb45230}, !- Handle
  TARP;                                   !- Algorithm

OS:SurfaceConvectionAlgorithm:Outside,
  {9a0a9f6f-4bbd-4b12-a121-9492a1fcd7d6}, !- Handle
  DOE-2;                                  !- Algorithm

OS:HeatBalanceAlgorithm,
  {9d93e563-e1e0-46d7-9e39-d1c8aceb7212}, !- Handle
  ConductionTransferFunction,             !- Algorithm
  200;                                    !- Surface Temperature Upper Limit {C}

OS:ZoneCapacitanceMultiplier:ResearchSpecial,
  {6bfced16-b16f-47f6-8223-f7e267d75d19}, !- Handle
  ,                                       !- Temperature Capacity Multiplier
  15,                                     !- Humidity Capacity Multiplier
  ;                                       !- Carbon Dioxide Capacity Multiplier

OS:ThermalZone,
  {50ea2cae-55f4-47ec-bb62-7e3a01707f35}, !- Handle
  living zone,                            !- Name
  ,                                       !- Multiplier
  ,                                       !- Ceiling Height {m}
  ,                                       !- Volume {m3}
  ,                                       !- Floor Area {m2}
  ,                                       !- Zone Inside Convection Algorithm
  ,                                       !- Zone Outside Convection Algorithm
  ,                                       !- Zone Conditioning Equipment List Name
  {f1e3f78b-1b53-4948-819c-c20aaaac5612}, !- Zone Air Inlet Port List
  {f6cbe6cb-3ef8-4c85-a4fb-810aaeceadae}, !- Zone Air Exhaust Port List
  {581c7aee-4f07-4c8f-9461-324a6caa1168}, !- Zone Air Node Name
  ,                                       !- Zone Return Air Node Name
  ,                                       !- Primary Daylighting Control Name
  ,                                       !- Fraction of Zone Controlled by Primary Daylighting Control
  ,                                       !- Secondary Daylighting Control Name
  ,                                       !- Fraction of Zone Controlled by Secondary Daylighting Control
  ,                                       !- Illuminance Map Name
  ,                                       !- Group Rendering Name
  ,                                       !- Thermostat Name
  No;                                     !- Use Ideal Air Loads

OS:Node,
  {39a65f35-dead-47cb-b475-460e1697fda4}, !- Handle
  Node 1,                                 !- Name
  {581c7aee-4f07-4c8f-9461-324a6caa1168}, !- Inlet Port
  ;                                       !- Outlet Port

OS:Connection,
  {581c7aee-4f07-4c8f-9461-324a6caa1168}, !- Handle
  {6b426a13-216d-4efa-ab75-09cadb83fc59}, !- Name
  {50ea2cae-55f4-47ec-bb62-7e3a01707f35}, !- Source Object
  11,                                     !- Outlet Port
  {39a65f35-dead-47cb-b475-460e1697fda4}, !- Target Object
  2;                                      !- Inlet Port

OS:PortList,
  {f1e3f78b-1b53-4948-819c-c20aaaac5612}, !- Handle
  {da3737d1-3233-4b07-b5fe-7105e6231d99}, !- Name
  {50ea2cae-55f4-47ec-bb62-7e3a01707f35}; !- HVAC Component

OS:PortList,
  {f6cbe6cb-3ef8-4c85-a4fb-810aaeceadae}, !- Handle
  {2df622eb-4d10-4247-bef2-c57799c9a24d}, !- Name
  {50ea2cae-55f4-47ec-bb62-7e3a01707f35}; !- HVAC Component

OS:Sizing:Zone,
  {4458d9fe-9fd9-446a-9e87-b69cc44ae100}, !- Handle
  {50ea2cae-55f4-47ec-bb62-7e3a01707f35}, !- Zone or ZoneList Name
  SupplyAirTemperature,                   !- Zone Cooling Design Supply Air Temperature Input Method
  14,                                     !- Zone Cooling Design Supply Air Temperature {C}
  11.11,                                  !- Zone Cooling Design Supply Air Temperature Difference {deltaC}
  SupplyAirTemperature,                   !- Zone Heating Design Supply Air Temperature Input Method
  40,                                     !- Zone Heating Design Supply Air Temperature {C}
  11.11,                                  !- Zone Heating Design Supply Air Temperature Difference {deltaC}
  0.0085,                                 !- Zone Cooling Design Supply Air Humidity Ratio {kg-H2O/kg-air}
  0.008,                                  !- Zone Heating Design Supply Air Humidity Ratio {kg-H2O/kg-air}
  ,                                       !- Zone Heating Sizing Factor
  ,                                       !- Zone Cooling Sizing Factor
  DesignDay,                              !- Cooling Design Air Flow Method
  ,                                       !- Cooling Design Air Flow Rate {m3/s}
  ,                                       !- Cooling Minimum Air Flow per Zone Floor Area {m3/s-m2}
  ,                                       !- Cooling Minimum Air Flow {m3/s}
  ,                                       !- Cooling Minimum Air Flow Fraction
  DesignDay,                              !- Heating Design Air Flow Method
  ,                                       !- Heating Design Air Flow Rate {m3/s}
  ,                                       !- Heating Maximum Air Flow per Zone Floor Area {m3/s-m2}
  ,                                       !- Heating Maximum Air Flow {m3/s}
  ,                                       !- Heating Maximum Air Flow Fraction
  ,                                       !- Design Zone Air Distribution Effectiveness in Cooling Mode
  ,                                       !- Design Zone Air Distribution Effectiveness in Heating Mode
  No,                                     !- Account for Dedicated Outdoor Air System
  NeutralSupplyAir,                       !- Dedicated Outdoor Air System Control Strategy
  autosize,                               !- Dedicated Outdoor Air Low Setpoint Temperature for Design {C}
  autosize;                               !- Dedicated Outdoor Air High Setpoint Temperature for Design {C}

OS:ZoneHVAC:EquipmentList,
  {c87cc29d-e9b4-4318-a1b3-3e46dce47c38}, !- Handle
  Zone HVAC Equipment List 1,             !- Name
  {50ea2cae-55f4-47ec-bb62-7e3a01707f35}; !- Thermal Zone

OS:Space,
  {78954e81-23db-4df0-a379-b06bc3e9d466}, !- Handle
  living space,                           !- Name
  ,                                       !- Space Type Name
  ,                                       !- Default Construction Set Name
  ,                                       !- Default Schedule Set Name
  -0,                                     !- Direction of Relative North {deg}
  0,                                      !- X Origin {m}
  0,                                      !- Y Origin {m}
  0,                                      !- Z Origin {m}
  ,                                       !- Building Story Name
  {50ea2cae-55f4-47ec-bb62-7e3a01707f35}, !- Thermal Zone Name
  ,                                       !- Part of Total Floor Area
  ,                                       !- Design Specification Outdoor Air Object Name
  {1166d04d-1649-4e6b-82de-132fe6989cdc}; !- Building Unit Name

OS:Surface,
  {655b7186-1a7f-4df9-941f-5a5c583dd6f5}, !- Handle
  Surface 1,                              !- Name
  Floor,                                  !- Surface Type
  ,                                       !- Construction Name
  {78954e81-23db-4df0-a379-b06bc3e9d466}, !- Space Name
  Ground,                                 !- Outside Boundary Condition
  ,                                       !- Outside Boundary Condition Object
  NoSun,                                  !- Sun Exposure
  NoWind,                                 !- Wind Exposure
  ,                                       !- View Factor to Ground
  ,                                       !- Number of Vertices
  0, 0, 0,                                !- X,Y,Z Vertex 1 {m}
  0, 6.81553519541936, 0,                 !- X,Y,Z Vertex 2 {m}
  13.6310703908387, 6.81553519541936, 0,  !- X,Y,Z Vertex 3 {m}
  13.6310703908387, 0, 0;                 !- X,Y,Z Vertex 4 {m}

OS:Surface,
  {7602b513-9173-4636-be39-ac6c10fe30d1}, !- Handle
  Surface 2,                              !- Name
  Wall,                                   !- Surface Type
  ,                                       !- Construction Name
  {78954e81-23db-4df0-a379-b06bc3e9d466}, !- Space Name
  Outdoors,                               !- Outside Boundary Condition
  ,                                       !- Outside Boundary Condition Object
  SunExposed,                             !- Sun Exposure
  WindExposed,                            !- Wind Exposure
  ,                                       !- View Factor to Ground
  ,                                       !- Number of Vertices
  0, 6.81553519541936, 2.4384,            !- X,Y,Z Vertex 1 {m}
  0, 6.81553519541936, 0,                 !- X,Y,Z Vertex 2 {m}
  0, 0, 0,                                !- X,Y,Z Vertex 3 {m}
  0, 0, 2.4384;                           !- X,Y,Z Vertex 4 {m}

OS:Surface,
  {8c2c7200-96dc-4e71-860c-a22a086a36b9}, !- Handle
  Surface 3,                              !- Name
  Wall,                                   !- Surface Type
  ,                                       !- Construction Name
  {78954e81-23db-4df0-a379-b06bc3e9d466}, !- Space Name
  Outdoors,                               !- Outside Boundary Condition
  ,                                       !- Outside Boundary Condition Object
  SunExposed,                             !- Sun Exposure
  WindExposed,                            !- Wind Exposure
  ,                                       !- View Factor to Ground
  ,                                       !- Number of Vertices
  13.6310703908387, 6.81553519541936, 2.4384, !- X,Y,Z Vertex 1 {m}
  13.6310703908387, 6.81553519541936, 0,  !- X,Y,Z Vertex 2 {m}
  0, 6.81553519541936, 0,                 !- X,Y,Z Vertex 3 {m}
  0, 6.81553519541936, 2.4384;            !- X,Y,Z Vertex 4 {m}

OS:Surface,
  {cde9fca3-ca94-4715-a15d-1c8946c80b40}, !- Handle
  Surface 4,                              !- Name
  Wall,                                   !- Surface Type
  ,                                       !- Construction Name
  {78954e81-23db-4df0-a379-b06bc3e9d466}, !- Space Name
  Outdoors,                               !- Outside Boundary Condition
  ,                                       !- Outside Boundary Condition Object
  SunExposed,                             !- Sun Exposure
  WindExposed,                            !- Wind Exposure
  ,                                       !- View Factor to Ground
  ,                                       !- Number of Vertices
  13.6310703908387, 0, 2.4384,            !- X,Y,Z Vertex 1 {m}
  13.6310703908387, 0, 0,                 !- X,Y,Z Vertex 2 {m}
  13.6310703908387, 6.81553519541936, 0,  !- X,Y,Z Vertex 3 {m}
  13.6310703908387, 6.81553519541936, 2.4384; !- X,Y,Z Vertex 4 {m}

OS:Surface,
  {32d0f128-0a6b-4792-9752-d2167e7d1704}, !- Handle
  Surface 5,                              !- Name
  Wall,                                   !- Surface Type
  ,                                       !- Construction Name
  {78954e81-23db-4df0-a379-b06bc3e9d466}, !- Space Name
  Outdoors,                               !- Outside Boundary Condition
  ,                                       !- Outside Boundary Condition Object
  SunExposed,                             !- Sun Exposure
  WindExposed,                            !- Wind Exposure
  ,                                       !- View Factor to Ground
  ,                                       !- Number of Vertices
  0, 0, 2.4384,                           !- X,Y,Z Vertex 1 {m}
  0, 0, 0,                                !- X,Y,Z Vertex 2 {m}
  13.6310703908387, 0, 0,                 !- X,Y,Z Vertex 3 {m}
  13.6310703908387, 0, 2.4384;            !- X,Y,Z Vertex 4 {m}

OS:Surface,
  {fb20bd45-30f8-48ae-a66c-96e3314e2da6}, !- Handle
  Surface 6,                              !- Name
  RoofCeiling,                            !- Surface Type
  ,                                       !- Construction Name
  {78954e81-23db-4df0-a379-b06bc3e9d466}, !- Space Name
  Surface,                                !- Outside Boundary Condition
  {93fdfcbf-5412-490c-bbc6-be9c055bd2fe}, !- Outside Boundary Condition Object
  NoSun,                                  !- Sun Exposure
  NoWind,                                 !- Wind Exposure
  ,                                       !- View Factor to Ground
  ,                                       !- Number of Vertices
  13.6310703908387, 0, 2.4384,            !- X,Y,Z Vertex 1 {m}
  13.6310703908387, 6.81553519541936, 2.4384, !- X,Y,Z Vertex 2 {m}
  0, 6.81553519541936, 2.4384,            !- X,Y,Z Vertex 3 {m}
  0, 0, 2.4384;                           !- X,Y,Z Vertex 4 {m}

OS:Space,
  {336e16a2-c9f7-483a-922d-547091737732}, !- Handle
  living space|story 2,                   !- Name
  ,                                       !- Space Type Name
  ,                                       !- Default Construction Set Name
  ,                                       !- Default Schedule Set Name
  -0,                                     !- Direction of Relative North {deg}
  0,                                      !- X Origin {m}
  0,                                      !- Y Origin {m}
  2.4384,                                 !- Z Origin {m}
  ,                                       !- Building Story Name
  {50ea2cae-55f4-47ec-bb62-7e3a01707f35}, !- Thermal Zone Name
  ,                                       !- Part of Total Floor Area
  ,                                       !- Design Specification Outdoor Air Object Name
  {1166d04d-1649-4e6b-82de-132fe6989cdc}; !- Building Unit Name

OS:Surface,
  {93fdfcbf-5412-490c-bbc6-be9c055bd2fe}, !- Handle
  Surface 7,                              !- Name
  Floor,                                  !- Surface Type
  ,                                       !- Construction Name
  {336e16a2-c9f7-483a-922d-547091737732}, !- Space Name
  Surface,                                !- Outside Boundary Condition
  {fb20bd45-30f8-48ae-a66c-96e3314e2da6}, !- Outside Boundary Condition Object
  NoSun,                                  !- Sun Exposure
  NoWind,                                 !- Wind Exposure
  ,                                       !- View Factor to Ground
  ,                                       !- Number of Vertices
  0, 0, 0,                                !- X,Y,Z Vertex 1 {m}
  0, 6.81553519541936, 0,                 !- X,Y,Z Vertex 2 {m}
  13.6310703908387, 6.81553519541936, 0,  !- X,Y,Z Vertex 3 {m}
  13.6310703908387, 0, 0;                 !- X,Y,Z Vertex 4 {m}

OS:Surface,
  {cf34c48f-562a-456a-bd0c-10ca3290fd32}, !- Handle
  Surface 8,                              !- Name
  Wall,                                   !- Surface Type
  ,                                       !- Construction Name
  {336e16a2-c9f7-483a-922d-547091737732}, !- Space Name
  Outdoors,                               !- Outside Boundary Condition
  ,                                       !- Outside Boundary Condition Object
  SunExposed,                             !- Sun Exposure
  WindExposed,                            !- Wind Exposure
  ,                                       !- View Factor to Ground
  ,                                       !- Number of Vertices
  0, 6.81553519541936, 2.4384,            !- X,Y,Z Vertex 1 {m}
  0, 6.81553519541936, 0,                 !- X,Y,Z Vertex 2 {m}
  0, 0, 0,                                !- X,Y,Z Vertex 3 {m}
  0, 0, 2.4384;                           !- X,Y,Z Vertex 4 {m}

OS:Surface,
  {fedc459e-ad97-470e-b6eb-05f3e65d3678}, !- Handle
  Surface 9,                              !- Name
  Wall,                                   !- Surface Type
  ,                                       !- Construction Name
  {336e16a2-c9f7-483a-922d-547091737732}, !- Space Name
  Outdoors,                               !- Outside Boundary Condition
  ,                                       !- Outside Boundary Condition Object
  SunExposed,                             !- Sun Exposure
  WindExposed,                            !- Wind Exposure
  ,                                       !- View Factor to Ground
  ,                                       !- Number of Vertices
  13.6310703908387, 6.81553519541936, 2.4384, !- X,Y,Z Vertex 1 {m}
  13.6310703908387, 6.81553519541936, 0,  !- X,Y,Z Vertex 2 {m}
  0, 6.81553519541936, 0,                 !- X,Y,Z Vertex 3 {m}
  0, 6.81553519541936, 2.4384;            !- X,Y,Z Vertex 4 {m}

OS:Surface,
  {aab2c187-d281-4f84-b493-b6c755a5e1d4}, !- Handle
  Surface 10,                             !- Name
  Wall,                                   !- Surface Type
  ,                                       !- Construction Name
  {336e16a2-c9f7-483a-922d-547091737732}, !- Space Name
  Outdoors,                               !- Outside Boundary Condition
  ,                                       !- Outside Boundary Condition Object
  SunExposed,                             !- Sun Exposure
  WindExposed,                            !- Wind Exposure
  ,                                       !- View Factor to Ground
  ,                                       !- Number of Vertices
  13.6310703908387, 0, 2.4384,            !- X,Y,Z Vertex 1 {m}
  13.6310703908387, 0, 0,                 !- X,Y,Z Vertex 2 {m}
  13.6310703908387, 6.81553519541936, 0,  !- X,Y,Z Vertex 3 {m}
  13.6310703908387, 6.81553519541936, 2.4384; !- X,Y,Z Vertex 4 {m}

OS:Surface,
  {5f1680b9-4c8d-4087-939e-42069395ec6d}, !- Handle
  Surface 11,                             !- Name
  Wall,                                   !- Surface Type
  ,                                       !- Construction Name
  {336e16a2-c9f7-483a-922d-547091737732}, !- Space Name
  Outdoors,                               !- Outside Boundary Condition
  ,                                       !- Outside Boundary Condition Object
  SunExposed,                             !- Sun Exposure
  WindExposed,                            !- Wind Exposure
  ,                                       !- View Factor to Ground
  ,                                       !- Number of Vertices
  0, 0, 2.4384,                           !- X,Y,Z Vertex 1 {m}
  0, 0, 0,                                !- X,Y,Z Vertex 2 {m}
  13.6310703908387, 0, 0,                 !- X,Y,Z Vertex 3 {m}
  13.6310703908387, 0, 2.4384;            !- X,Y,Z Vertex 4 {m}

OS:Surface,
  {12b2b745-e811-487a-a807-51ec96f3502a}, !- Handle
  Surface 12,                             !- Name
  RoofCeiling,                            !- Surface Type
  {502050ec-010b-4ef2-a7e2-44dca6c374c6}, !- Construction Name
  {336e16a2-c9f7-483a-922d-547091737732}, !- Space Name
  Surface,                                !- Outside Boundary Condition
  {bbee889a-1c2a-41af-8625-c024674cfd4d}, !- Outside Boundary Condition Object
  NoSun,                                  !- Sun Exposure
  NoWind,                                 !- Wind Exposure
  ,                                       !- View Factor to Ground
  ,                                       !- Number of Vertices
  13.6310703908387, 0, 2.4384,            !- X,Y,Z Vertex 1 {m}
  13.6310703908387, 6.81553519541936, 2.4384, !- X,Y,Z Vertex 2 {m}
  0, 6.81553519541936, 2.4384,            !- X,Y,Z Vertex 3 {m}
  0, 0, 2.4384;                           !- X,Y,Z Vertex 4 {m}

OS:Surface,
  {bbee889a-1c2a-41af-8625-c024674cfd4d}, !- Handle
  Surface 13,                             !- Name
  Floor,                                  !- Surface Type
  {573ce704-21a4-4c9b-ba08-d81f02f18e33}, !- Construction Name
  {6d5654b3-8529-455d-bed7-efb65cc5a443}, !- Space Name
  Surface,                                !- Outside Boundary Condition
  {12b2b745-e811-487a-a807-51ec96f3502a}, !- Outside Boundary Condition Object
  NoSun,                                  !- Sun Exposure
  NoWind,                                 !- Wind Exposure
  ,                                       !- View Factor to Ground
  ,                                       !- Number of Vertices
  0, 6.81553519541936, 0,                 !- X,Y,Z Vertex 1 {m}
  13.6310703908387, 6.81553519541936, 0,  !- X,Y,Z Vertex 2 {m}
  13.6310703908387, 0, 0,                 !- X,Y,Z Vertex 3 {m}
  0, 0, 0;                                !- X,Y,Z Vertex 4 {m}

OS:Surface,
  {4a1c0b27-6dbb-4635-84e3-7a1164aa3474}, !- Handle
  Surface 14,                             !- Name
  RoofCeiling,                            !- Surface Type
  {e9cebdd8-e48a-46bb-9195-0b05f008725b}, !- Construction Name
  {6d5654b3-8529-455d-bed7-efb65cc5a443}, !- Space Name
  Outdoors,                               !- Outside Boundary Condition
  ,                                       !- Outside Boundary Condition Object
  SunExposed,                             !- Sun Exposure
  WindExposed,                            !- Wind Exposure
  ,                                       !- View Factor to Ground
  ,                                       !- Number of Vertices
  13.6310703908387, 3.40776759770968, 1.70388379885484, !- X,Y,Z Vertex 1 {m}
  0, 3.40776759770968, 1.70388379885484,  !- X,Y,Z Vertex 2 {m}
  0, 0, 0,                                !- X,Y,Z Vertex 3 {m}
  13.6310703908387, 0, 0;                 !- X,Y,Z Vertex 4 {m}

OS:Surface,
  {2a5ba944-82c6-4768-af62-6b2ea59a926d}, !- Handle
  Surface 15,                             !- Name
  RoofCeiling,                            !- Surface Type
  {e9cebdd8-e48a-46bb-9195-0b05f008725b}, !- Construction Name
  {6d5654b3-8529-455d-bed7-efb65cc5a443}, !- Space Name
  Outdoors,                               !- Outside Boundary Condition
  ,                                       !- Outside Boundary Condition Object
  SunExposed,                             !- Sun Exposure
  WindExposed,                            !- Wind Exposure
  ,                                       !- View Factor to Ground
  ,                                       !- Number of Vertices
  0, 3.40776759770968, 1.70388379885484,  !- X,Y,Z Vertex 1 {m}
  13.6310703908387, 3.40776759770968, 1.70388379885484, !- X,Y,Z Vertex 2 {m}
  13.6310703908387, 6.81553519541936, 0,  !- X,Y,Z Vertex 3 {m}
  0, 6.81553519541936, 0;                 !- X,Y,Z Vertex 4 {m}

OS:Surface,
  {05202fe7-b522-4f24-ae04-734eff72d113}, !- Handle
  Surface 16,                             !- Name
  Wall,                                   !- Surface Type
  ,                                       !- Construction Name
  {6d5654b3-8529-455d-bed7-efb65cc5a443}, !- Space Name
  Outdoors,                               !- Outside Boundary Condition
  ,                                       !- Outside Boundary Condition Object
  SunExposed,                             !- Sun Exposure
  WindExposed,                            !- Wind Exposure
  ,                                       !- View Factor to Ground
  ,                                       !- Number of Vertices
  0, 3.40776759770968, 1.70388379885484,  !- X,Y,Z Vertex 1 {m}
  0, 6.81553519541936, 0,                 !- X,Y,Z Vertex 2 {m}
  0, 0, 0;                                !- X,Y,Z Vertex 3 {m}

OS:Surface,
  {e7cbc151-0d55-481b-93d7-ba4812af61b3}, !- Handle
  Surface 17,                             !- Name
  Wall,                                   !- Surface Type
  ,                                       !- Construction Name
  {6d5654b3-8529-455d-bed7-efb65cc5a443}, !- Space Name
  Outdoors,                               !- Outside Boundary Condition
  ,                                       !- Outside Boundary Condition Object
  SunExposed,                             !- Sun Exposure
  WindExposed,                            !- Wind Exposure
  ,                                       !- View Factor to Ground
  ,                                       !- Number of Vertices
  13.6310703908387, 3.40776759770968, 1.70388379885484, !- X,Y,Z Vertex 1 {m}
  13.6310703908387, 0, 0,                 !- X,Y,Z Vertex 2 {m}
  13.6310703908387, 6.81553519541936, 0;  !- X,Y,Z Vertex 3 {m}

OS:Space,
  {6d5654b3-8529-455d-bed7-efb65cc5a443}, !- Handle
  unfinished attic space,                 !- Name
  ,                                       !- Space Type Name
  ,                                       !- Default Construction Set Name
  ,                                       !- Default Schedule Set Name
  -0,                                     !- Direction of Relative North {deg}
  0,                                      !- X Origin {m}
  0,                                      !- Y Origin {m}
  4.8768,                                 !- Z Origin {m}
  ,                                       !- Building Story Name
  {372ba38a-2726-43ae-b8af-2d84e7f94af7}, !- Thermal Zone Name
  ,                                       !- Part of Total Floor Area
  ,                                       !- Design Specification Outdoor Air Object Name
  {1166d04d-1649-4e6b-82de-132fe6989cdc}; !- Building Unit Name

OS:ThermalZone,
  {372ba38a-2726-43ae-b8af-2d84e7f94af7}, !- Handle
  unfinished attic zone,                  !- Name
  ,                                       !- Multiplier
  ,                                       !- Ceiling Height {m}
  ,                                       !- Volume {m3}
  ,                                       !- Floor Area {m2}
  ,                                       !- Zone Inside Convection Algorithm
  ,                                       !- Zone Outside Convection Algorithm
  ,                                       !- Zone Conditioning Equipment List Name
  {7524eeac-3a31-493f-b98a-5f89c563e77b}, !- Zone Air Inlet Port List
  {60349329-b96b-4520-b914-92fd7da2eb11}, !- Zone Air Exhaust Port List
  {f7c7e5e8-079c-4ca6-9ac2-3a0872295f5d}, !- Zone Air Node Name
  ,                                       !- Zone Return Air Node Name
  ,                                       !- Primary Daylighting Control Name
  ,                                       !- Fraction of Zone Controlled by Primary Daylighting Control
  ,                                       !- Secondary Daylighting Control Name
  ,                                       !- Fraction of Zone Controlled by Secondary Daylighting Control
  ,                                       !- Illuminance Map Name
  ,                                       !- Group Rendering Name
  ,                                       !- Thermostat Name
  No;                                     !- Use Ideal Air Loads

OS:Node,
  {7b510ad3-8b13-4068-a703-3bfea1c87055}, !- Handle
  Node 2,                                 !- Name
  {f7c7e5e8-079c-4ca6-9ac2-3a0872295f5d}, !- Inlet Port
  ;                                       !- Outlet Port

OS:Connection,
  {f7c7e5e8-079c-4ca6-9ac2-3a0872295f5d}, !- Handle
  {e972d90c-acbd-4e6e-b797-d9c8467057d9}, !- Name
  {372ba38a-2726-43ae-b8af-2d84e7f94af7}, !- Source Object
  11,                                     !- Outlet Port
  {7b510ad3-8b13-4068-a703-3bfea1c87055}, !- Target Object
  2;                                      !- Inlet Port

OS:PortList,
  {7524eeac-3a31-493f-b98a-5f89c563e77b}, !- Handle
  {d24b8ace-df58-4c26-a251-4efc97c17151}, !- Name