!- NOTE: Auto-generated from /test/osw_files/SFD_Multizone_2story_SL_UA_GRG_2Bed_2Bath_1Kitchen_Denver.osw

OS:Version,
  {fc003c06-618b-4051-9b37-6b6f71b12672}, !- Handle
  2.2.0;                                  !- Version Identifier

OS:Building,
  {bf305633-c5a1-4881-9edf-ca5e1a8e1274}, !- Handle
  Building,                               !- Name
  ,                                       !- Building Sector Type
  ,                                       !- North Axis {deg}
  ,                                       !- Nominal Floor to Floor Height {m}
  ,                                       !- Space Type Name
  ,                                       !- Default Construction Set Name
  ,                                       !- Default Schedule Set Name
  ,                                       !- Standards Number of Stories
  2,                                      !- Standards Number of Above Ground Stories
  singlefamilydetached;                   !- Standards Building Type

OS:YearDescription,
  {513d8dda-86cb-442a-b01c-1f7f0e0ac70e}; !- Handle

OS:SimulationControl,
  {2c487a4c-bac9-4ac5-b669-1e49d9da7c2b}, !- Handle
  ,                                       !- Do Zone Sizing Calculation
  ,                                       !- Do System Sizing Calculation
  ,                                       !- Do Plant Sizing Calculation
  No,                                     !- Run Simulation for Sizing Periods
  ;                                       !- Run Simulation for Weather File Run Periods

OS:Timestep,
  {4ebc9f1e-4707-402e-9844-67eb1ffbd522}, !- Handle
  6;                                      !- Number of Timesteps per Hour

OS:RunPeriod,
  {28df894d-6af9-4fb8-8f56-df1753344aa3}, !- Handle
  Run Period,                             !- Name
  1,                                      !- Begin Month
  1,                                      !- Begin Day of Month
  12,                                     !- End Month
  31,                                     !- End Day of Month
  ,                                       !- Use Weather File Holidays and Special Days
  ,                                       !- Use Weather File Daylight Saving Period
  ,                                       !- Apply Weekend Holiday Rule
  ,                                       !- Use Weather File Rain Indicators
  ,                                       !- Use Weather File Snow Indicators
  ;                                       !- Number of Times Runperiod to be Repeated

OS:Sizing:Parameters,
  {dde5af6f-7923-4600-a28a-7556673a0266}, !- Handle
  1.0,                                    !- Heating Sizing Factor
  1.0;                                    !- Cooling Sizing Factor

OS:ShadowCalculation,
  {ca758bea-4416-4626-9bba-3d8795c79bd6}, !- Handle
  20,                                     !- Calculation Frequency
  200;                                    !- Maximum Figures in Shadow Overlap Calculations

OS:SurfaceConvectionAlgorithm:Inside,
  {aaabfc36-718a-4ab0-b622-f186ebb45230}, !- Handle
  TARP;                                   !- Algorithm

OS:SurfaceConvectionAlgorithm:Outside,
  {9a0a9f6f-4bbd-4b12-a121-9492a1fcd7d6}, !- Handle
  DOE-2;                                  !- Algorithm

OS:HeatBalanceAlgorithm,
  {9d93e563-e1e0-46d7-9e39-d1c8aceb7212}, !- Handle
  ConductionTransferFunction,             !- Algorithm
  200;                                    !- Surface Temperature Upper Limit {C}

OS:ZoneCapacitanceMultiplier:ResearchSpecial,
  {6bfced16-b16f-47f6-8223-f7e267d75d19}, !- Handle
  ,                                       !- Temperature Capacity Multiplier
  15,                                     !- Humidity Capacity Multiplier
  ;                                       !- Carbon Dioxide Capacity Multiplier

OS:Space,
  {59356d41-a848-4c80-91be-6d06c5c6b844}, !- Handle
  Space 2 - 3,                            !- Name
  {170c1989-4868-4ef9-aa33-8b7a85209551}, !- Space Type Name
  ,                                       !- Default Construction Set Name
  ,                                       !- Default Schedule Set Name
  ,                                       !- Direction of Relative North {deg}
  ,                                       !- X Origin {m}
  ,                                       !- Y Origin {m}
  ,                                       !- Z Origin {m}
  ,                                       !- Building Story Name
  {a67236ec-aa8a-4d65-a74d-cf1732de4d09}, !- Thermal Zone Name
  ,                                       !- Part of Total Floor Area
  ,                                       !- Design Specification Outdoor Air Object Name
  {8d9066ae-4b35-4fc5-bd73-8b06a15afd28}; !- Building Unit Name

OS:SpaceType,
  {170c1989-4868-4ef9-aa33-8b7a85209551}, !- Handle
  114,                                    !- Name
  ,                                       !- Default Construction Set Name
  ,                                       !- Default Schedule Set Name
  ,                                       !- Group Rendering Name
  ,                                       !- Design Specification Outdoor Air Object Name
  ,                                       !- Standards Building Type
  bedroom;                                !- Standards Space Type

OS:Surface,
  {2a8d9e57-6725-45bf-9ab4-94627d659218}, !- Handle
   50,                                    !- Name
  Floor,                                  !- Surface Type
  ,                                       !- Construction Name
  {59356d41-a848-4c80-91be-6d06c5c6b844}, !- Space Name
  Surface,                                !- Outside Boundary Condition
  {f9ae8825-a6b3-44fb-9dd7-75c053d0d5ae}, !- Outside Boundary Condition Object
  NoSun,                                  !- Sun Exposure
  NoWind,                                 !- Wind Exposure
  ,                                       !- View Factor to Ground
  ,                                       !- Number of Vertices
  -54, 42, 3,                             !- X,Y,Z Vertex 1 {m}
  -68, 42, 3,                             !- X,Y,Z Vertex 2 {m}
  -68, 58, 3,                             !- X,Y,Z Vertex 3 {m}
  -54, 58, 3;                             !- X,Y,Z Vertex 4 {m}

OS:Surface,
  {679fa748-6c2c-42e2-b11b-3b9bb818ac36}, !- Handle
   51,                                    !- Name
  RoofCeiling,                            !- Surface Type
  ,                                       !- Construction Name
  {59356d41-a848-4c80-91be-6d06c5c6b844}, !- Space Name
  Surface,                                !- Outside Boundary Condition
  {81f4f9b0-07ec-473b-92b8-e16816ffbf15}, !- Outside Boundary Condition Object
  NoSun,                                  !- Sun Exposure
  NoWind,                                 !- Wind Exposure
  ,                                       !- View Factor to Ground
  ,                                       !- Number of Vertices
  -54, 42, 6,                             !- X,Y,Z Vertex 1 {m}
  -54, 58, 6,                             !- X,Y,Z Vertex 2 {m}
  -68, 58, 6,                             !- X,Y,Z Vertex 3 {m}
  -68, 42, 6;                             !- X,Y,Z Vertex 4 {m}

OS:Surface,
  {aee6a675-fd4d-44ec-81e9-8d0aabfbbd84}, !- Handle
   52,                                    !- Name
  Wall,                                   !- Surface Type
  ,                                       !- Construction Name
  {59356d41-a848-4c80-91be-6d06c5c6b844}, !- Space Name
  Surface,                                !- Outside Boundary Condition
  {a3ea824b-8b56-4ced-99ee-93b8d1977327}, !- Outside Boundary Condition Object
  NoSun,                                  !- Sun Exposure
  NoWind,                                 !- Wind Exposure
  ,                                       !- View Factor to Ground
  ,                                       !- Number of Vertices
  -68, 42, 6,                             !- X,Y,Z Vertex 1 {m}
  -68, 42, 3,                             !- X,Y,Z Vertex 2 {m}
  -54, 42, 3,                             !- X,Y,Z Vertex 3 {m}
  -54, 42, 6;                             !- X,Y,Z Vertex 4 {m}

OS:Surface,
  {13b33c8d-c150-48a3-aaa9-3bfb6efa17e3}, !- Handle
   53,                                    !- Name
  Wall,                                   !- Surface Type
  ,                                       !- Construction Name
  {59356d41-a848-4c80-91be-6d06c5c6b844}, !- Space Name
  Outdoors,                               !- Outside Boundary Condition
  ,                                       !- Outside Boundary Condition Object
  SunExposed,                             !- Sun Exposure
  WindExposed,                            !- Wind Exposure
  ,                                       !- View Factor to Ground
  ,                                       !- Number of Vertices
  -68, 58, 6,                             !- X,Y,Z Vertex 1 {m}
  -68, 58, 3,                             !- X,Y,Z Vertex 2 {m}
  -68, 42, 3,                             !- X,Y,Z Vertex 3 {m}
  -68, 42, 6;                             !- X,Y,Z Vertex 4 {m}

OS:Surface,
  {d641646c-d569-41e6-b4f8-fd4277516c76}, !- Handle
   54,                                    !- Name
  Wall,                                   !- Surface Type
  ,                                       !- Construction Name
  {59356d41-a848-4c80-91be-6d06c5c6b844}, !- Space Name
  Outdoors,                               !- Outside Boundary Condition
  ,                                       !- Outside Boundary Condition Object
  SunExposed,                             !- Sun Exposure
  WindExposed,                            !- Wind Exposure
  ,                                       !- View Factor to Ground
  ,                                       !- Number of Vertices
  -54, 58, 6,                             !- X,Y,Z Vertex 1 {m}
  -54, 58, 3,                             !- X,Y,Z Vertex 2 {m}
  -68, 58, 3,                             !- X,Y,Z Vertex 3 {m}
  -68, 58, 6;                             !- X,Y,Z Vertex 4 {m}

OS:Surface,
  {68e43898-b341-4ec3-ac0e-21e86c3de017}, !- Handle
   55,                                    !- Name
  Wall,                                   !- Surface Type
  ,                                       !- Construction Name
  {59356d41-a848-4c80-91be-6d06c5c6b844}, !- Space Name
  Surface,                                !- Outside Boundary Condition
  {94fbe680-d096-4a7f-8404-c7f48992927f}, !- Outside Boundary Condition Object
  NoSun,                                  !- Sun Exposure
  NoWind,                                 !- Wind Exposure
  ,                                       !- View Factor to Ground
  ,                                       !- Number of Vertices
  -54, 42, 6,                             !- X,Y,Z Vertex 1 {m}
  -54, 42, 3,                             !- X,Y,Z Vertex 2 {m}
  -54, 58, 3,                             !- X,Y,Z Vertex 3 {m}
  -54, 58, 6;                             !- X,Y,Z Vertex 4 {m}

OS:Space,
  {c8a0efe1-2cf1-4caf-9d12-8fce954f09e8}, !- Handle
  Space 1 - 7,                            !- Name
  {1393c716-1df8-47a8-bfe9-e61ecbe21113}, !- Space Type Name
  ,                                       !- Default Construction Set Name
  ,                                       !- Default Schedule Set Name
  ,                                       !- Direction of Relative North {deg}
  ,                                       !- X Origin {m}
  ,                                       !- Y Origin {m}
  ,                                       !- Z Origin {m}
  ,                                       !- Building Story Name
  {6f30be6a-be2d-4ec3-882c-18ea248b9f92}, !- Thermal Zone Name
  ,                                       !- Part of Total Floor Area
  ,                                       !- Design Specification Outdoor Air Object Name
  {8d9066ae-4b35-4fc5-bd73-8b06a15afd28}; !- Building Unit Name

OS:SpaceType,
  {1393c716-1df8-47a8-bfe9-e61ecbe21113}, !- Handle
  116,                                    !- Name
  ,                                       !- Default Construction Set Name
  ,                                       !- Default Schedule Set Name
  ,                                       !- Group Rendering Name
  ,                                       !- Design Specification Outdoor Air Object Name
  ,                                       !- Standards Building Type
  kitchen;                                !- Standards Space Type

OS:Surface,
  {6f3ece19-dd89-4ae5-87a8-b02f78e36e2d}, !- Handle
   31,                                    !- Name
  Floor,                                  !- Surface Type
  ,                                       !- Construction Name
  {c8a0efe1-2cf1-4caf-9d12-8fce954f09e8}, !- Space Name
  Ground,                                 !- Outside Boundary Condition
  ,                                       !- Outside Boundary Condition Object
  NoSun,                                  !- Sun Exposure
  NoWind,                                 !- Wind Exposure
  ,                                       !- View Factor to Ground
  ,                                       !- Number of Vertices
  6, 36, 0,                               !- X,Y,Z Vertex 1 {m}
  -6, 36, 0,                              !- X,Y,Z Vertex 2 {m}
  -6, 58, 0,                              !- X,Y,Z Vertex 3 {m}
  6, 58, 0;                               !- X,Y,Z Vertex 4 {m}

OS:Surface,
  {c421a8fe-a290-4945-af23-975a6d31ec84}, !- Handle
   32,                                    !- Name
  RoofCeiling,                            !- Surface Type
  ,                                       !- Construction Name
  {c8a0efe1-2cf1-4caf-9d12-8fce954f09e8}, !- Space Name
  Surface,                                !- Outside Boundary Condition
  {c22babd5-1d10-4b55-b792-7f50e0ed66bf}, !- Outside Boundary Condition Object
  NoSun,                                  !- Sun Exposure
  NoWind,                                 !- Wind Exposure
  ,                                       !- View Factor to Ground
  ,                                       !- Number of Vertices
  6, 36, 3,                               !- X,Y,Z Vertex 1 {m}
  6, 58, 3,                               !- X,Y,Z Vertex 2 {m}
  -6, 58, 3,                              !- X,Y,Z Vertex 3 {m}
  -6, 36, 3;                              !- X,Y,Z Vertex 4 {m}

OS:Surface,
  {4459f64d-790a-4ee6-8302-45be0df93c27}, !- Handle
   33,                                    !- Name
  Wall,                                   !- Surface Type
  ,                                       !- Construction Name
  {c8a0efe1-2cf1-4caf-9d12-8fce954f09e8}, !- Space Name
  Outdoors,                               !- Outside Boundary Condition
  ,                                       !- Outside Boundary Condition Object
  SunExposed,                             !- Sun Exposure
  WindExposed,                            !- Wind Exposure
  ,                                       !- View Factor to Ground
  ,                                       !- Number of Vertices
  -6, 36, 3,                              !- X,Y,Z Vertex 1 {m}
  -6, 36, 0,                              !- X,Y,Z Vertex 2 {m}
  6, 36, 0,                               !- X,Y,Z Vertex 3 {m}
  6, 36, 3;                               !- X,Y,Z Vertex 4 {m}

OS:Surface,
  {011a2af4-7281-4cde-a655-f33c3ebb4299}, !- Handle
   34,                                    !- Name
  Wall,                                   !- Surface Type
  ,                                       !- Construction Name
  {c8a0efe1-2cf1-4caf-9d12-8fce954f09e8}, !- Space Name
  Surface,                                !- Outside Boundary Condition
  {b14cab70-8a55-425a-b91c-92f39f13dcba}, !- Outside Boundary Condition Object
  NoSun,                                  !- Sun Exposure
  NoWind,                                 !- Wind Exposure
  ,                                       !- View Factor to Ground
  ,                                       !- Number of Vertices
  -6, 58, 3,                              !- X,Y,Z Vertex 1 {m}
  -6, 58, 0,                              !- X,Y,Z Vertex 2 {m}
  -6, 36, 0,                              !- X,Y,Z Vertex 3 {m}
  -6, 36, 3;                              !- X,Y,Z Vertex 4 {m}

OS:Surface,
  {30d1dfa3-0da0-48f9-9350-465c5b5ea3f6}, !- Handle
   35,                                    !- Name
  Wall,                                   !- Surface Type
  ,                                       !- Construction Name
  {c8a0efe1-2cf1-4caf-9d12-8fce954f09e8}, !- Space Name
  Outdoors,                               !- Outside Boundary Condition
  ,                                       !- Outside Boundary Condition Object
  SunExposed,                             !- Sun Exposure
  WindExposed,                            !- Wind Exposure
  ,                                       !- View Factor to Ground
  ,                                       !- Number of Vertices
  6, 58, 3,                               !- X,Y,Z Vertex 1 {m}
  6, 58, 0,                               !- X,Y,Z Vertex 2 {m}
  -6, 58, 0,                              !- X,Y,Z Vertex 3 {m}
  -6, 58, 3;                              !- X,Y,Z Vertex 4 {m}

OS:Surface,
  {b8ee1a40-fbc5-4025-afd5-423dc09b2d31}, !- Handle
   36,                                    !- Name
  Wall,                                   !- Surface Type
  ,                                       !- Construction Name
  {c8a0efe1-2cf1-4caf-9d12-8fce954f09e8}, !- Space Name
  Surface,                                !- Outside Boundary Condition
  {3f64e372-8653-4e01-9775-e058ca39d422}, !- Outside Boundary Condition Object
  NoSun,                                  !- Sun Exposure
  NoWind,                                 !- Wind Exposure
  ,                                       !- View Factor to Ground
  ,                                       !- Number of Vertices
  6, 36, 3,                               !- X,Y,Z Vertex 1 {m}
  6, 36, 0,                               !- X,Y,Z Vertex 2 {m}
  6, 58, 0,                               !- X,Y,Z Vertex 3 {m}
  6, 58, 3;                               !- X,Y,Z Vertex 4 {m}

OS:Space,
  {ac847e95-ef3c-40d3-ac4b-d2f615c6e728}, !- Handle
  Space 1 - 3,                            !- Name
  {d95b2291-3ca1-4af6-a11d-924688441f07}, !- Space Type Name
  ,                                       !- Default Construction Set Name
  ,                                       !- Default Schedule Set Name
  ,                                       !- Direction of Relative North {deg}
  ,                                       !- X Origin {m}
  ,                                       !- Y Origin {m}
  ,                                       !- Z Origin {m}
  ,                                       !- Building Story Name
  {f21c4f3a-f64f-4227-b4fd-b837361b8727}, !- Thermal Zone Name
  ,                                       !- Part of Total Floor Area
  ,                                       !- Design Specification Outdoor Air Object Name
  {8d9066ae-4b35-4fc5-bd73-8b06a15afd28}; !- Building Unit Name

OS:SpaceType,
  {d95b2291-3ca1-4af6-a11d-924688441f07}, !- Handle
  112,                                    !- Name
  ,                                       !- Default Construction Set Name
  ,                                       !- Default Schedule Set Name
  ,                                       !- Group Rendering Name
  ,                                       !- Design Specification Outdoor Air Object Name
  ,                                       !- Standards Building Type
  living;                                 !- Standards Space Type

OS:Surface,
  {665eb2e4-da30-407d-b8c7-dd8aa941040c}, !- Handle
   12,                                    !- Name
  Floor,                                  !- Surface Type
  ,                                       !- Construction Name
  {ac847e95-ef3c-40d3-ac4b-d2f615c6e728}, !- Space Name
  Ground,                                 !- Outside Boundary Condition
  ,                                       !- Outside Boundary Condition Object
  NoSun,                                  !- Sun Exposure
  NoWind,                                 !- Wind Exposure
  ,                                       !- View Factor to Ground
  ,                                       !- Number of Vertices
  -50, 36, 0,                             !- X,Y,Z Vertex 1 {m}
  -54, 36, 0,                             !- X,Y,Z Vertex 2 {m}
  -54, 42, 0,                             !- X,Y,Z Vertex 3 {m}
  -54, 58, 0,                             !- X,Y,Z Vertex 4 {m}
  -50, 58, 0;                             !- X,Y,Z Vertex 5 {m}

OS:Surface,
  {f640af8a-3849-41db-a477-a27b703d53dd}, !- Handle
   18,                                    !- Name
  Wall,                                   !- Surface Type
  ,                                       !- Construction Name
  {ac847e95-ef3c-40d3-ac4b-d2f615c6e728}, !- Space Name
  Surface,                                !- Outside Boundary Condition
  {d4e12d06-5325-42d2-b7fd-17b25ff9fa59}, !- Outside Boundary Condition Object
  NoSun,                                  !- Sun Exposure
  NoWind,                                 !- Wind Exposure
  ,                                       !- View Factor to Ground
  ,                                       !- Number of Vertices
  -50, 36, 3,                             !- X,Y,Z Vertex 1 {m}
  -50, 36, 0,                             !- X,Y,Z Vertex 2 {m}
  -50, 58, 0,                             !- X,Y,Z Vertex 3 {m}
  -50, 58, 3;                             !- X,Y,Z Vertex 4 {m}

OS:Surface,
  {981ad40c-4a9c-4592-81c7-009153df9c20}, !- Handle
   17,                                    !- Name
  Wall,                                   !- Surface Type
  ,                                       !- Construction Name
  {ac847e95-ef3c-40d3-ac4b-d2f615c6e728}, !- Space Name
  Outdoors,                               !- Outside Boundary Condition
  ,                                       !- Outside Boundary Condition Object
  SunExposed,                             !- Sun Exposure
  WindExposed,                            !- Wind Exposure
  ,                                       !- View Factor to Ground
  ,                                       !- Number of Vertices
  -50, 58, 3,                             !- X,Y,Z Vertex 1 {m}
  -50, 58, 0,                             !- X,Y,Z Vertex 2 {m}
  -54, 58, 0,                             !- X,Y,Z Vertex 3 {m}
  -54, 58, 3;                             !- X,Y,Z Vertex 4 {m}

OS:Surface,
  {f0493177-3e29-412f-bc17-af3967ae2caf}, !- Handle
   16,                                    !- Name
  Wall,                                   !- Surface Type
  ,                                       !- Construction Name
  {ac847e95-ef3c-40d3-ac4b-d2f615c6e728}, !- Space Name
  Surface,                                !- Outside Boundary Condition
  {bf6b4251-aa59-4349-a5fc-753d11101a2f}, !- Outside Boundary Condition Object
  NoSun,                                  !- Sun Exposure
  NoWind,                                 !- Wind Exposure
  ,                                       !- View Factor to Ground
  ,                                       !- Number of Vertices
  -54, 58, 3,                             !- X,Y,Z Vertex 1 {m}
  -54, 58, 0,                             !- X,Y,Z Vertex 2 {m}
  -54, 42, 0,                             !- X,Y,Z Vertex 3 {m}
  -54, 42, 3;                             !- X,Y,Z Vertex 4 {m}

OS:Surface,
  {02668b60-3808-4ed6-ae13-fb9e56fc4771}, !- Handle
   15,                                    !- Name
  Wall,                                   !- Surface Type
  ,                                       !- Construction Name
  {ac847e95-ef3c-40d3-ac4b-d2f615c6e728}, !- Space Name
  Surface,                                !- Outside Boundary Condition
  {8dc3ffdd-7484-4fa4-a1db-8196b3430ad9}, !- Outside Boundary Condition Object
  NoSun,                                  !- Sun Exposure
  NoWind,                                 !- Wind Exposure
  ,                                       !- View Factor to Ground
  ,                                       !- Number of Vertices
  -54, 42, 3,                             !- X,Y,Z Vertex 1 {m}
  -54, 42, 0,                             !- X,Y,Z Vertex 2 {m}
  -54, 36, 0,                             !- X,Y,Z Vertex 3 {m}
  -54, 36, 3;                             !- X,Y,Z Vertex 4 {m}

OS:Surface,
  {4a8296db-be5c-4c02-ba61-205b7d5d1199}, !- Handle
   13,                                    !- Name
  RoofCeiling,                            !- Surface Type
  ,                                       !- Construction Name
  {ac847e95-ef3c-40d3-ac4b-d2f615c6e728}, !- Space Name
  Surface,                                !- Outside Boundary Condition
  {61a118b1-d47a-4a72-95c1-fbef685b6759}, !- Outside Boundary Condition Object
  NoSun,                                  !- Sun Exposure
  NoWind,                                 !- Wind Exposure
  ,                                       !- View Factor to Ground
  ,                                       !- Number of Vertices
  -50, 58, 3,                             !- X,Y,Z Vertex 1 {m}
  -54, 58, 3,                             !- X,Y,Z Vertex 2 {m}
  -54, 42, 3,                             !- X,Y,Z Vertex 3 {m}
  -54, 36, 3,                             !- X,Y,Z Vertex 4 {m}
  -50, 36, 3;                             !- X,Y,Z Vertex 5 {m}

OS:Surface,
  {9dc97fd1-a2ca-4694-8ec3-f45155a6834c}, !- Handle
   14,                                    !- Name
  Wall,                                   !- Surface Type
  ,                                       !- Construction Name
  {ac847e95-ef3c-40d3-ac4b-d2f615c6e728}, !- Space Name
  Outdoors,                               !- Outside Boundary Condition
  ,                                       !- Outside Boundary Condition Object
  SunExposed,                             !- Sun Exposure
  WindExposed,                            !- Wind Exposure
  ,                                       !- View Factor to Ground
  ,                                       !- Number of Vertices
  -54, 36, 3,                             !- X,Y,Z Vertex 1 {m}
  -54, 36, 0,                             !- X,Y,Z Vertex 2 {m}
  -50, 36, 0,                             !- X,Y,Z Vertex 3 {m}
  -50, 36, 3;                             !- X,Y,Z Vertex 4 {m}

OS:Space,
  {0b2952a5-8e1e-481b-804e-62945d61b20a}, !- Handle
  Space 1 - 5,                            !- Name
  {157270be-55a1-4eb6-a94a-c8a987ab3ee7}, !- Space Type Name
  ,                                       !- Default Construction Set Name
  ,                                       !- Default Schedule Set Name
  ,                                       !- Direction of Relative North {deg}
  ,                                       !- X Origin {m}
  ,                                       !- Y Origin {m}
  ,                                       !- Z Origin {m}
  ,                                       !- Building Story Name
  {4b5784ba-6ed7-42f1-ad30-be71620feec0}, !- Thermal Zone Name
  ,                                       !- Part of Total Floor Area
  ,                                       !- Design Specification Outdoor Air Object Name
  {8d9066ae-4b35-4fc5-bd73-8b06a15afd28}; !- Building Unit Name

OS:SpaceType,
  {157270be-55a1-4eb6-a94a-c8a987ab3ee7}, !- Handle
  115,                                    !- Name
  ,                                       !- Default Construction Set Name
  ,                                       !- Default Schedule Set Name
  ,                                       !- Group Rendering Name
  ,                                       !- Design Specification Outdoor Air Object Name
  ,                                       !- Standards Building Type
  bathroom;                               !- Standards Space Type

OS:Surface,
  {bbbf41a0-448a-484a-a3be-c356b7efe632}, !- Handle
   25,                                    !- Name
  Floor,                                  !- Surface Type
  ,                                       !- Construction Name
  {0b2952a5-8e1e-481b-804e-62945d61b20a}, !- Space Name
  Ground,                                 !- Outside Boundary Condition
  ,                                       !- Outside Boundary Condition Object
  NoSun,                                  !- Sun Exposure
  NoWind,                                 !- Wind Exposure
  ,                                       !- View Factor to Ground
  ,                                       !- Number of Vertices
  -54, 36, 0,                             !- X,Y,Z Vertex 1 {m}
  -68, 36, 0,                             !- X,Y,Z Vertex 2 {m}
  -68, 42, 0,                             !- X,Y,Z Vertex 3 {m}
  -54, 42, 0;                             !- X,Y,Z Vertex 4 {m}

OS:Surface,
  {9390467d-da0c-451a-a333-95f5fcbb9238}, !- Handle
   26,                                    !- Name
  RoofCeiling,                            !- Surface Type
  ,                                       !- Construction Name
  {0b2952a5-8e1e-481b-804e-62945d61b20a}, !- Space Name
  Surface,                                !- Outside Boundary Condition
  {17aa5001-1c0e-418c-8ab4-b9d0cd6b4634}, !- Outside Boundary Condition Object
  NoSun,                                  !- Sun Exposure
  NoWind,                                 !- Wind Exposure
  ,                                       !- View Factor to Ground
  ,                                       !- Number of Vertices
  -54, 42, 3,                             !- X,Y,Z Vertex 1 {m}
  -68, 42, 3,                             !- X,Y,Z Vertex 2 {m}
  -68, 36, 3,                             !- X,Y,Z Vertex 3 {m}
  -54, 36, 3;                             !- X,Y,Z Vertex 4 {m}

OS:Surface,
  {5b949317-0180-4072-9d33-48ce8982569a}, !- Handle
   27,                                    !- Name
  Wall,                                   !- Surface Type
  ,                                       !- Construction Name