!- NOTE: Auto-generated from /test/osw_files/SFD_2000sqft_2story_FB_UA_Denver_CentralAC.osw

OS:Version,
  {dca00d6b-cf7e-45a2-9458-c42771c2465b}, !- Handle
  2.4.0;                                  !- Version Identifier

OS:Building,
  {bf305633-c5a1-4881-9edf-ca5e1a8e1274}, !- Handle
  Building,                               !- Name
  ,                                       !- Building Sector Type
  ,                                       !- North Axis {deg}
  ,                                       !- Nominal Floor to Floor Height {m}
  ,                                       !- Space Type Name
  ,                                       !- Default Construction Set Name
  ,                                       !- Default Schedule Set Name
  3,                                      !- Standards Number of Stories
  2,                                      !- Standards Number of Above Ground Stories
  singlefamilydetached,                   !- Standards Building Type
  1;                                      !- Standards Number of Living Units

OS:YearDescription,
  {513d8dda-86cb-442a-b01c-1f7f0e0ac70e}; !- Handle

OS:SimulationControl,
  {2c487a4c-bac9-4ac5-b669-1e49d9da7c2b}, !- Handle
  ,                                       !- Do Zone Sizing Calculation
  ,                                       !- Do System Sizing Calculation
  ,                                       !- Do Plant Sizing Calculation
  No,                                     !- Run Simulation for Sizing Periods
  ;                                       !- Run Simulation for Weather File Run Periods

OS:Timestep,
  {4ebc9f1e-4707-402e-9844-67eb1ffbd522}, !- Handle
  6;                                      !- Number of Timesteps per Hour

OS:RunPeriod,
  {28df894d-6af9-4fb8-8f56-df1753344aa3}, !- Handle
  Run Period,                             !- Name
  1,                                      !- Begin Month
  1,                                      !- Begin Day of Month
  12,                                     !- End Month
  31,                                     !- End Day of Month
  ,                                       !- Use Weather File Holidays and Special Days
  ,                                       !- Use Weather File Daylight Saving Period
  ,                                       !- Apply Weekend Holiday Rule
  ,                                       !- Use Weather File Rain Indicators
  ,                                       !- Use Weather File Snow Indicators
  ;                                       !- Number of Times Runperiod to be Repeated

OS:Sizing:Parameters,
  {dde5af6f-7923-4600-a28a-7556673a0266}, !- Handle
  1.0,                                    !- Heating Sizing Factor
  1.0;                                    !- Cooling Sizing Factor

OS:ShadowCalculation,
  {ca758bea-4416-4626-9bba-3d8795c79bd6}, !- Handle
  20,                                     !- Calculation Frequency
  200;                                    !- Maximum Figures in Shadow Overlap Calculations

OS:SurfaceConvectionAlgorithm:Inside,
  {aaabfc36-718a-4ab0-b622-f186ebb45230}, !- Handle
  TARP;                                   !- Algorithm

OS:SurfaceConvectionAlgorithm:Outside,
  {9a0a9f6f-4bbd-4b12-a121-9492a1fcd7d6}, !- Handle
  DOE-2;                                  !- Algorithm

OS:HeatBalanceAlgorithm,
  {9d93e563-e1e0-46d7-9e39-d1c8aceb7212}, !- Handle
  ConductionTransferFunction,             !- Algorithm
  200;                                    !- Surface Temperature Upper Limit {C}

OS:ZoneCapacitanceMultiplier:ResearchSpecial,
  {6bfced16-b16f-47f6-8223-f7e267d75d19}, !- Handle
  ,                                       !- Temperature Capacity Multiplier
  15,                                     !- Humidity Capacity Multiplier
  ;                                       !- Carbon Dioxide Capacity Multiplier

OS:ThermalZone,
  {3505a8ee-4491-4a0b-9ad3-497afeecdd89}, !- Handle
  living zone,                            !- Name
  ,                                       !- Multiplier
  ,                                       !- Ceiling Height {m}
  ,                                       !- Volume {m3}
  ,                                       !- Floor Area {m2}
  ,                                       !- Zone Inside Convection Algorithm
  ,                                       !- Zone Outside Convection Algorithm
  ,                                       !- Zone Conditioning Equipment List Name
  {6a21e588-d044-4200-8218-b82fa1628352}, !- Zone Air Inlet Port List
  {dbab845e-1ce8-4cdb-a2a0-001e520da47a}, !- Zone Air Exhaust Port List
  {b53a9e6e-665e-4fb8-9477-724f0fd10a36}, !- Zone Air Node Name
  {11f15a8b-9d66-413f-b572-7feb02e45c2b}, !- Zone Return Air Node Name
  ,                                       !- Primary Daylighting Control Name
  ,                                       !- Fraction of Zone Controlled by Primary Daylighting Control
  ,                                       !- Secondary Daylighting Control Name
  ,                                       !- Fraction of Zone Controlled by Secondary Daylighting Control
  ,                                       !- Illuminance Map Name
  ,                                       !- Group Rendering Name
  {7abd3980-266b-4551-8e88-5dea1724e5d0}, !- Thermostat Name
  No;                                     !- Use Ideal Air Loads

OS:Node,
  {9bc477af-f7eb-42ad-a9aa-287d7625dbab}, !- Handle
  Node 1,                                 !- Name
  {b53a9e6e-665e-4fb8-9477-724f0fd10a36}, !- Inlet Port
  ;                                       !- Outlet Port

OS:Connection,
  {b53a9e6e-665e-4fb8-9477-724f0fd10a36}, !- Handle
  {a9c5f52d-2ea9-401a-b54a-45ab10e45d8f}, !- Name
  {3505a8ee-4491-4a0b-9ad3-497afeecdd89}, !- Source Object
  11,                                     !- Outlet Port
  {9bc477af-f7eb-42ad-a9aa-287d7625dbab}, !- Target Object
  2;                                      !- Inlet Port

OS:PortList,
  {6a21e588-d044-4200-8218-b82fa1628352}, !- Handle
  {39db5933-6c9d-4360-beba-93126a19f9d7}, !- Name
  {3505a8ee-4491-4a0b-9ad3-497afeecdd89}, !- HVAC Component
  {1de543bd-3c8c-46a5-affb-7fedd6839c58}; !- Port 1

OS:PortList,
  {dbab845e-1ce8-4cdb-a2a0-001e520da47a}, !- Handle
  {a7b97436-913b-4a3b-924d-42b78836bfaa}, !- Name
  {3505a8ee-4491-4a0b-9ad3-497afeecdd89}; !- HVAC Component

OS:Sizing:Zone,
  {ef51c154-01a7-407a-ac0f-f3be151e9b2a}, !- Handle
  {3505a8ee-4491-4a0b-9ad3-497afeecdd89}, !- Zone or ZoneList Name
  SupplyAirTemperature,                   !- Zone Cooling Design Supply Air Temperature Input Method
  14,                                     !- Zone Cooling Design Supply Air Temperature {C}
  11.11,                                  !- Zone Cooling Design Supply Air Temperature Difference {deltaC}
  SupplyAirTemperature,                   !- Zone Heating Design Supply Air Temperature Input Method
  40,                                     !- Zone Heating Design Supply Air Temperature {C}
  11.11,                                  !- Zone Heating Design Supply Air Temperature Difference {deltaC}
  0.0085,                                 !- Zone Cooling Design Supply Air Humidity Ratio {kg-H2O/kg-air}
  0.008,                                  !- Zone Heating Design Supply Air Humidity Ratio {kg-H2O/kg-air}
  ,                                       !- Zone Heating Sizing Factor
  ,                                       !- Zone Cooling Sizing Factor
  DesignDay,                              !- Cooling Design Air Flow Method
  ,                                       !- Cooling Design Air Flow Rate {m3/s}
  ,                                       !- Cooling Minimum Air Flow per Zone Floor Area {m3/s-m2}
  ,                                       !- Cooling Minimum Air Flow {m3/s}
  ,                                       !- Cooling Minimum Air Flow Fraction
  DesignDay,                              !- Heating Design Air Flow Method
  ,                                       !- Heating Design Air Flow Rate {m3/s}
  ,                                       !- Heating Maximum Air Flow per Zone Floor Area {m3/s-m2}
  ,                                       !- Heating Maximum Air Flow {m3/s}
  ,                                       !- Heating Maximum Air Flow Fraction
  ,                                       !- Design Zone Air Distribution Effectiveness in Cooling Mode
  ,                                       !- Design Zone Air Distribution Effectiveness in Heating Mode
  No,                                     !- Account for Dedicated Outdoor Air System
  NeutralSupplyAir,                       !- Dedicated Outdoor Air System Control Strategy
  autosize,                               !- Dedicated Outdoor Air Low Setpoint Temperature for Design {C}
  autosize;                               !- Dedicated Outdoor Air High Setpoint Temperature for Design {C}

OS:ZoneHVAC:EquipmentList,
  {eea5a20f-db7e-4dc7-9fd9-cae0bbb2aee4}, !- Handle
  Zone HVAC Equipment List 1,             !- Name
  {3505a8ee-4491-4a0b-9ad3-497afeecdd89}, !- Thermal Zone
  {d401f262-248d-4510-9a67-7467b7ad600a}, !- Zone Equipment 1
  1,                                      !- Zone Equipment Cooling Sequence 1
  1;                                      !- Zone Equipment Heating or No-Load Sequence 1

OS:Space,
  {4f3893c4-dfd8-4a1c-97ce-905f57aab835}, !- Handle
  living space,                           !- Name
  ,                                       !- Space Type Name
  ,                                       !- Default Construction Set Name
  ,                                       !- Default Schedule Set Name
  -0,                                     !- Direction of Relative North {deg}
  0,                                      !- X Origin {m}
  0,                                      !- Y Origin {m}
  0,                                      !- Z Origin {m}
  ,                                       !- Building Story Name
  {3505a8ee-4491-4a0b-9ad3-497afeecdd89}, !- Thermal Zone Name
  ,                                       !- Part of Total Floor Area
  ,                                       !- Design Specification Outdoor Air Object Name
  {16331bc8-3e5e-456f-ae5e-3a17eaf17c36}; !- Building Unit Name

OS:Surface,
  {c02d7200-89c8-419f-8a17-04a3235c1982}, !- Handle
  Surface 1,                              !- Name
  Floor,                                  !- Surface Type
  ,                                       !- Construction Name
  {4f3893c4-dfd8-4a1c-97ce-905f57aab835}, !- Space Name
  Surface,                                !- Outside Boundary Condition
  {630dd721-ed17-4ae5-aadc-8ab4cc4caacc}, !- Outside Boundary Condition Object
  NoSun,                                  !- Sun Exposure
  NoWind,                                 !- Wind Exposure
  ,                                       !- View Factor to Ground
  ,                                       !- Number of Vertices
  0, 0, 0,                                !- X,Y,Z Vertex 1 {m}
  0, 5.56486118425249, 0,                 !- X,Y,Z Vertex 2 {m}
  11.129722368505, 5.56486118425249, 0,   !- X,Y,Z Vertex 3 {m}
  11.129722368505, 0, 0;                  !- X,Y,Z Vertex 4 {m}

OS:Surface,
  {97e88113-d411-45ab-9393-6913f8115f28}, !- Handle
  Surface 2,                              !- Name
  Wall,                                   !- Surface Type
  ,                                       !- Construction Name
  {4f3893c4-dfd8-4a1c-97ce-905f57aab835}, !- Space Name
  Outdoors,                               !- Outside Boundary Condition
  ,                                       !- Outside Boundary Condition Object
  SunExposed,                             !- Sun Exposure
  WindExposed,                            !- Wind Exposure
  ,                                       !- View Factor to Ground
  ,                                       !- Number of Vertices
  0, 5.56486118425249, 2.4384,            !- X,Y,Z Vertex 1 {m}
  0, 5.56486118425249, 0,                 !- X,Y,Z Vertex 2 {m}
  0, 0, 0,                                !- X,Y,Z Vertex 3 {m}
  0, 0, 2.4384;                           !- X,Y,Z Vertex 4 {m}

OS:Surface,
  {5ac4f662-39cf-4cb2-8fc4-da18cdf550b0}, !- Handle
  Surface 3,                              !- Name
  Wall,                                   !- Surface Type
  ,                                       !- Construction Name
  {4f3893c4-dfd8-4a1c-97ce-905f57aab835}, !- Space Name
  Outdoors,                               !- Outside Boundary Condition
  ,                                       !- Outside Boundary Condition Object
  SunExposed,                             !- Sun Exposure
  WindExposed,                            !- Wind Exposure
  ,                                       !- View Factor to Ground
  ,                                       !- Number of Vertices
  11.129722368505, 5.56486118425249, 2.4384, !- X,Y,Z Vertex 1 {m}
  11.129722368505, 5.56486118425249, 0,   !- X,Y,Z Vertex 2 {m}
  0, 5.56486118425249, 0,                 !- X,Y,Z Vertex 3 {m}
  0, 5.56486118425249, 2.4384;            !- X,Y,Z Vertex 4 {m}

OS:Surface,
  {7192a17f-4e59-44d5-80af-b3e54a3121b8}, !- Handle
  Surface 4,                              !- Name
  Wall,                                   !- Surface Type
  ,                                       !- Construction Name
  {4f3893c4-dfd8-4a1c-97ce-905f57aab835}, !- Space Name
  Outdoors,                               !- Outside Boundary Condition
  ,                                       !- Outside Boundary Condition Object
  SunExposed,                             !- Sun Exposure
  WindExposed,                            !- Wind Exposure
  ,                                       !- View Factor to Ground
  ,                                       !- Number of Vertices
  11.129722368505, 0, 2.4384,             !- X,Y,Z Vertex 1 {m}
  11.129722368505, 0, 0,                  !- X,Y,Z Vertex 2 {m}
  11.129722368505, 5.56486118425249, 0,   !- X,Y,Z Vertex 3 {m}
  11.129722368505, 5.56486118425249, 2.4384; !- X,Y,Z Vertex 4 {m}

OS:Surface,
  {04256b5f-b1f3-4c32-b209-a2e4625e474c}, !- Handle
  Surface 5,                              !- Name
  Wall,                                   !- Surface Type
  ,                                       !- Construction Name
  {4f3893c4-dfd8-4a1c-97ce-905f57aab835}, !- Space Name
  Outdoors,                               !- Outside Boundary Condition
  ,                                       !- Outside Boundary Condition Object
  SunExposed,                             !- Sun Exposure
  WindExposed,                            !- Wind Exposure
  ,                                       !- View Factor to Ground
  ,                                       !- Number of Vertices
  0, 0, 2.4384,                           !- X,Y,Z Vertex 1 {m}
  0, 0, 0,                                !- X,Y,Z Vertex 2 {m}
  11.129722368505, 0, 0,                  !- X,Y,Z Vertex 3 {m}
  11.129722368505, 0, 2.4384;             !- X,Y,Z Vertex 4 {m}

OS:Surface,
  {534f4c4c-c4da-4182-a056-c6b0c94bf695}, !- Handle
  Surface 6,                              !- Name
  RoofCeiling,                            !- Surface Type
  ,                                       !- Construction Name
  {4f3893c4-dfd8-4a1c-97ce-905f57aab835}, !- Space Name
  Surface,                                !- Outside Boundary Condition
  {bdd8be61-a808-4f1b-b740-0df49b8c8934}, !- Outside Boundary Condition Object
  NoSun,                                  !- Sun Exposure
  NoWind,                                 !- Wind Exposure
  ,                                       !- View Factor to Ground
  ,                                       !- Number of Vertices
  11.129722368505, 0, 2.4384,             !- X,Y,Z Vertex 1 {m}
  11.129722368505, 5.56486118425249, 2.4384, !- X,Y,Z Vertex 2 {m}
  0, 5.56486118425249, 2.4384,            !- X,Y,Z Vertex 3 {m}
  0, 0, 2.4384;                           !- X,Y,Z Vertex 4 {m}

OS:Space,
  {4f797c6e-de91-4389-9aa7-a81b7318f0d0}, !- Handle
  living space|story 2,                   !- Name
  ,                                       !- Space Type Name
  ,                                       !- Default Construction Set Name
  ,                                       !- Default Schedule Set Name
  -0,                                     !- Direction of Relative North {deg}
  0,                                      !- X Origin {m}
  0,                                      !- Y Origin {m}
  2.4384,                                 !- Z Origin {m}
  ,                                       !- Building Story Name
  {3505a8ee-4491-4a0b-9ad3-497afeecdd89}, !- Thermal Zone Name
  ,                                       !- Part of Total Floor Area
  ,                                       !- Design Specification Outdoor Air Object Name
  {16331bc8-3e5e-456f-ae5e-3a17eaf17c36}; !- Building Unit Name

OS:Surface,
  {bdd8be61-a808-4f1b-b740-0df49b8c8934}, !- Handle
  Surface 7,                              !- Name
  Floor,                                  !- Surface Type
  ,                                       !- Construction Name
  {4f797c6e-de91-4389-9aa7-a81b7318f0d0}, !- Space Name
  Surface,                                !- Outside Boundary Condition
  {534f4c4c-c4da-4182-a056-c6b0c94bf695}, !- Outside Boundary Condition Object
  NoSun,                                  !- Sun Exposure
  NoWind,                                 !- Wind Exposure
  ,                                       !- View Factor to Ground
  ,                                       !- Number of Vertices
  0, 0, 0,                                !- X,Y,Z Vertex 1 {m}
  0, 5.56486118425249, 0,                 !- X,Y,Z Vertex 2 {m}
  11.129722368505, 5.56486118425249, 0,   !- X,Y,Z Vertex 3 {m}
  11.129722368505, 0, 0;                  !- X,Y,Z Vertex 4 {m}

OS:Surface,
  {55fbebe3-c59b-4527-8149-a20a050402c6}, !- Handle
  Surface 8,                              !- Name
  Wall,                                   !- Surface Type
  ,                                       !- Construction Name
  {4f797c6e-de91-4389-9aa7-a81b7318f0d0}, !- Space Name
  Outdoors,                               !- Outside Boundary Condition
  ,                                       !- Outside Boundary Condition Object
  SunExposed,                             !- Sun Exposure
  WindExposed,                            !- Wind Exposure
  ,                                       !- View Factor to Ground
  ,                                       !- Number of Vertices
  0, 5.56486118425249, 2.4384,            !- X,Y,Z Vertex 1 {m}
  0, 5.56486118425249, 0,                 !- X,Y,Z Vertex 2 {m}
  0, 0, 0,                                !- X,Y,Z Vertex 3 {m}
  0, 0, 2.4384;                           !- X,Y,Z Vertex 4 {m}

OS:Surface,
  {7591eeca-88b3-46c6-8a6b-91a4c15b81fc}, !- Handle
  Surface 9,                              !- Name
  Wall,                                   !- Surface Type
  ,                                       !- Construction Name
  {4f797c6e-de91-4389-9aa7-a81b7318f0d0}, !- Space Name
  Outdoors,                               !- Outside Boundary Condition
  ,                                       !- Outside Boundary Condition Object
  SunExposed,                             !- Sun Exposure
  WindExposed,                            !- Wind Exposure
  ,                                       !- View Factor to Ground
  ,                                       !- Number of Vertices
  11.129722368505, 5.56486118425249, 2.4384, !- X,Y,Z Vertex 1 {m}
  11.129722368505, 5.56486118425249, 0,   !- X,Y,Z Vertex 2 {m}
  0, 5.56486118425249, 0,                 !- X,Y,Z Vertex 3 {m}
  0, 5.56486118425249, 2.4384;            !- X,Y,Z Vertex 4 {m}

OS:Surface,
  {6b1baf26-9104-4460-994c-2fa29e718107}, !- Handle
  Surface 10,                             !- Name
  Wall,                                   !- Surface Type
  ,                                       !- Construction Name
  {4f797c6e-de91-4389-9aa7-a81b7318f0d0}, !- Space Name
  Outdoors,                               !- Outside Boundary Condition
  ,                                       !- Outside Boundary Condition Object
  SunExposed,                             !- Sun Exposure
  WindExposed,                            !- Wind Exposure
  ,                                       !- View Factor to Ground
  ,                                       !- Number of Vertices
  11.129722368505, 0, 2.4384,             !- X,Y,Z Vertex 1 {m}
  11.129722368505, 0, 0,                  !- X,Y,Z Vertex 2 {m}
  11.129722368505, 5.56486118425249, 0,   !- X,Y,Z Vertex 3 {m}
  11.129722368505, 5.56486118425249, 2.4384; !- X,Y,Z Vertex 4 {m}

OS:Surface,
  {d4230af6-464d-463f-81f0-259a6344b015}, !- Handle
  Surface 11,                             !- Name
  Wall,                                   !- Surface Type
  ,                                       !- Construction Name
  {4f797c6e-de91-4389-9aa7-a81b7318f0d0}, !- Space Name
  Outdoors,                               !- Outside Boundary Condition
  ,                                       !- Outside Boundary Condition Object
  SunExposed,                             !- Sun Exposure
  WindExposed,                            !- Wind Exposure
  ,                                       !- View Factor to Ground
  ,                                       !- Number of Vertices
  0, 0, 2.4384,                           !- X,Y,Z Vertex 1 {m}
  0, 0, 0,                                !- X,Y,Z Vertex 2 {m}
  11.129722368505, 0, 0,                  !- X,Y,Z Vertex 3 {m}
  11.129722368505, 0, 2.4384;             !- X,Y,Z Vertex 4 {m}

OS:Surface,
  {4fea4d49-3411-47aa-adcc-dff35835e3f3}, !- Handle
  Surface 12,                             !- Name
  RoofCeiling,                            !- Surface Type
  ,                                       !- Construction Name
  {4f797c6e-de91-4389-9aa7-a81b7318f0d0}, !- Space Name
  Surface,                                !- Outside Boundary Condition
  {aacaf365-a2e1-4bd4-852d-90aa6b015277}, !- Outside Boundary Condition Object
  NoSun,                                  !- Sun Exposure
  NoWind,                                 !- Wind Exposure
  ,                                       !- View Factor to Ground
  ,                                       !- Number of Vertices
  11.129722368505, 0, 2.4384,             !- X,Y,Z Vertex 1 {m}
  11.129722368505, 5.56486118425249, 2.4384, !- X,Y,Z Vertex 2 {m}
  0, 5.56486118425249, 2.4384,            !- X,Y,Z Vertex 3 {m}
  0, 0, 2.4384;                           !- X,Y,Z Vertex 4 {m}

OS:Surface,
  {aacaf365-a2e1-4bd4-852d-90aa6b015277}, !- Handle
  Surface 13,                             !- Name
  Floor,                                  !- Surface Type
  ,                                       !- Construction Name
  {911d4391-7211-4f9a-90c2-4976db4fe64e}, !- Space Name
  Surface,                                !- Outside Boundary Condition
  {4fea4d49-3411-47aa-adcc-dff35835e3f3}, !- Outside Boundary Condition Object
  NoSun,                                  !- Sun Exposure
  NoWind,                                 !- Wind Exposure
  ,                                       !- View Factor to Ground
  ,                                       !- Number of Vertices
  0, 5.56486118425249, 0,                 !- X,Y,Z Vertex 1 {m}
  11.129722368505, 5.56486118425249, 0,   !- X,Y,Z Vertex 2 {m}
  11.129722368505, 0, 0,                  !- X,Y,Z Vertex 3 {m}
  0, 0, 0;                                !- X,Y,Z Vertex 4 {m}

OS:Surface,
  {3b58e7c0-9615-4e70-8331-bbfb60abbd42}, !- Handle
  Surface 14,                             !- Name
  RoofCeiling,                            !- Surface Type
  ,                                       !- Construction Name
  {911d4391-7211-4f9a-90c2-4976db4fe64e}, !- Space Name
  Outdoors,                               !- Outside Boundary Condition
  ,                                       !- Outside Boundary Condition Object
  SunExposed,                             !- Sun Exposure
  WindExposed,                            !- Wind Exposure
  ,                                       !- View Factor to Ground
  ,                                       !- Number of Vertices
  11.129722368505, 2.78243059212624, 1.39121529606312, !- X,Y,Z Vertex 1 {m}
  0, 2.78243059212624, 1.39121529606312,  !- X,Y,Z Vertex 2 {m}
  0, 0, 0,                                !- X,Y,Z Vertex 3 {m}
  11.129722368505, 0, 0;                  !- X,Y,Z Vertex 4 {m}

OS:Surface,
  {3a32cd9f-d3d2-4231-9641-89721da9b469}, !- Handle
  Surface 15,                             !- Name
  RoofCeiling,                            !- Surface Type
  ,                                       !- Construction Name
  {911d4391-7211-4f9a-90c2-4976db4fe64e}, !- Space Name
  Outdoors,                               !- Outside Boundary Condition
  ,                                       !- Outside Boundary Condition Object
  SunExposed,                             !- Sun Exposure
  WindExposed,                            !- Wind Exposure
  ,                                       !- View Factor to Ground
  ,                                       !- Number of Vertices
  0, 2.78243059212624, 1.39121529606312,  !- X,Y,Z Vertex 1 {m}
  11.129722368505, 2.78243059212624, 1.39121529606312, !- X,Y,Z Vertex 2 {m}
  11.129722368505, 5.56486118425249, 0,   !- X,Y,Z Vertex 3 {m}
  0, 5.56486118425249, 0;                 !- X,Y,Z Vertex 4 {m}

OS:Surface,
  {f7365d9d-2a6f-4bf0-86b1-c2cc5a56b122}, !- Handle
  Surface 16,                             !- Name
  Wall,                                   !- Surface Type
  ,                                       !- Construction Name
  {911d4391-7211-4f9a-90c2-4976db4fe64e}, !- Space Name
  Outdoors,                               !- Outside Boundary Condition
  ,                                       !- Outside Boundary Condition Object
  SunExposed,                             !- Sun Exposure
  WindExposed,                            !- Wind Exposure
  ,                                       !- View Factor to Ground
  ,                                       !- Number of Vertices
  0, 2.78243059212624, 1.39121529606312,  !- X,Y,Z Vertex 1 {m}
  0, 5.56486118425249, 0,                 !- X,Y,Z Vertex 2 {m}
  0, 0, 0;                                !- X,Y,Z Vertex 3 {m}

OS:Surface,
  {2ef33353-dd4e-43b4-a953-498a830e795b}, !- Handle
  Surface 17,                             !- Name
  Wall,                                   !- Surface Type
  ,                                       !- Construction Name
  {911d4391-7211-4f9a-90c2-4976db4fe64e}, !- Space Name
  Outdoors,                               !- Outside Boundary Condition
  ,                                       !- Outside Boundary Condition Object
  SunExposed,                             !- Sun Exposure
  WindExposed,                            !- Wind Exposure
  ,                                       !- View Factor to Ground
  ,                                       !- Number of Vertices
  11.129722368505, 2.78243059212624, 1.39121529606312, !- X,Y,Z Vertex 1 {m}
  11.129722368505, 0, 0,                  !- X,Y,Z Vertex 2 {m}
  11.129722368505, 5.56486118425249, 0;   !- X,Y,Z Vertex 3 {m}

OS:Space,
  {911d4391-7211-4f9a-90c2-4976db4fe64e}, !- Handle
  unfinished attic space,                 !- Name
  ,                                       !- Space Type Name
  ,                                       !- Default Construction Set Name
  ,                                       !- Default Schedule Set Name
  -0,                                     !- Direction of Relative North {deg}
  0,                                      !- X Origin {m}
  0,                                      !- Y Origin {m}
  4.8768,                                 !- Z Origin {m}
  ,                                       !- Building Story Name
  {670233f0-fb0a-4f99-9ebf-0fc9a84cf805}; !- Thermal Zone Name

OS:ThermalZone,
  {670233f0-fb0a-4f99-9ebf-0fc9a84cf805}, !- Handle
  unfinished attic zone,                  !- Name
  ,                                       !- Multiplier
  ,                                       !- Ceiling Height {m}
  ,                                       !- Volume {m3}
  ,                                       !- Floor Area {m2}
  ,                                       !- Zone Inside Convection Algorithm
  ,                                       !- Zone Outside Convection Algorithm
  ,                                       !- Zone Conditioning Equipment List Name
  {84cbdc79-3c75-4a03-9aec-930f8fe36f5e}, !- Zone Air Inlet Port List
  {339236f0-4542-468b-b7e2-c1870bb4b91f}, !- Zone Air Exhaust Port List
  {d12a97c3-ee81-474d-b9a4-7e01ec7b4fb0}, !- Zone Air Node Name
  ,                                       !- Zone Return Air Node Name
  ,                                       !- Primary Daylighting Control Name
  ,                                       !- Fraction of Zone Controlled by Primary Daylighting Control
  ,                                       !- Secondary Daylighting Control Name
  ,                                       !- Fraction of Zone Controlled by Secondary Daylighting Control
  ,                                       !- Illuminance Map Name
  ,                                       !- Group Rendering Name
  ,                                       !- Thermostat Name
  No;                                     !- Use Ideal Air Loads

OS:Node,
  {919e1369-11c5-4f69-9cb5-9bdb8a85136a}, !- Handle
  Node 2,                                 !- Name
  {d12a97c3-ee81-474d-b9a4-7e01ec7b4fb0}, !- Inlet Port
  ;                                       !- Outlet Port

OS:Connection,
  {d12a97c3-ee81-474d-b9a4-7e01ec7b4fb0}, !- Handle
  {cb7e5cfd-1c51-43b4-91ea-32ea729de9a5}, !- Name
  {670233f0-fb0a-4f99-9ebf-0fc9a84cf805}, !- Source Object
  11,                                     !- Outlet Port
  {919e1369-11c5-4f69-9cb5-9bdb8a85136a}, !- Target Object
  2;                                      !- Inlet Port

OS:PortList,
  {84cbdc79-3c75-4a03-9aec-930f8fe36f5e}, !- Handle