!- NOTE: Auto-generated from /test/osw_files/SFD_Successful_EnergyPlus_Run_TMY_OneDay.osw

OS:Version,
  {5df76f87-d561-4ef5-95be-0045e80bdfae}, !- Handle
  2.3.0;                                  !- Version Identifier

OS:Building,
  {bf305633-c5a1-4881-9edf-ca5e1a8e1274}, !- Handle
  Building,                               !- Name
  ,                                       !- Building Sector Type
  22.5,                                   !- North Axis {deg}
  ,                                       !- Nominal Floor to Floor Height {m}
  ,                                       !- Space Type Name
  ,                                       !- Default Construction Set Name
  ,                                       !- Default Schedule Set Name
  2,                                      !- Standards Number of Stories
  2,                                      !- Standards Number of Above Ground Stories
  singlefamilydetached,                   !- Standards Building Type
  1;                                      !- Standards Number of Living Units

OS:YearDescription,
  {513d8dda-86cb-442a-b01c-1f7f0e0ac70e}; !- Handle

OS:SimulationControl,
  {2c487a4c-bac9-4ac5-b669-1e49d9da7c2b}, !- Handle
  ,                                       !- Do Zone Sizing Calculation
  ,                                       !- Do System Sizing Calculation
  ,                                       !- Do Plant Sizing Calculation
  No,                                     !- Run Simulation for Sizing Periods
  ;                                       !- Run Simulation for Weather File Run Periods

OS:Timestep,
  {4ebc9f1e-4707-402e-9844-67eb1ffbd522}, !- Handle
  6;                                      !- Number of Timesteps per Hour

OS:RunPeriod,
  {28df894d-6af9-4fb8-8f56-df1753344aa3}, !- Handle
  Run Period,                             !- Name
  10,                                     !- Begin Month
  1,                                      !- Begin Day of Month
  10,                                     !- End Month
  31,                                     !- End Day of Month
  ,                                       !- Use Weather File Holidays and Special Days
  ,                                       !- Use Weather File Daylight Saving Period
  ,                                       !- Apply Weekend Holiday Rule
  ,                                       !- Use Weather File Rain Indicators
  ,                                       !- Use Weather File Snow Indicators
  ;                                       !- Number of Times Runperiod to be Repeated

OS:Sizing:Parameters,
  {dde5af6f-7923-4600-a28a-7556673a0266}, !- Handle
  1.0,                                    !- Heating Sizing Factor
  1.0;                                    !- Cooling Sizing Factor

OS:ShadowCalculation,
  {ca758bea-4416-4626-9bba-3d8795c79bd6}, !- Handle
  20,                                     !- Calculation Frequency
  200;                                    !- Maximum Figures in Shadow Overlap Calculations

OS:SurfaceConvectionAlgorithm:Inside,
  {aaabfc36-718a-4ab0-b622-f186ebb45230}, !- Handle
  TARP;                                   !- Algorithm

OS:SurfaceConvectionAlgorithm:Outside,
  {9a0a9f6f-4bbd-4b12-a121-9492a1fcd7d6}, !- Handle
  DOE-2;                                  !- Algorithm

OS:HeatBalanceAlgorithm,
  {9d93e563-e1e0-46d7-9e39-d1c8aceb7212}, !- Handle
  ConductionTransferFunction,             !- Algorithm
  200;                                    !- Surface Temperature Upper Limit {C}

OS:ZoneCapacitanceMultiplier:ResearchSpecial,
  {6bfced16-b16f-47f6-8223-f7e267d75d19}, !- Handle
  ,                                       !- Temperature Capacity Multiplier
  15,                                     !- Humidity Capacity Multiplier
  ;                                       !- Carbon Dioxide Capacity Multiplier

OS:Site,
  {799bbd8e-758c-4e6f-83a0-510ad2c5a63e}, !- Handle
  Denver Intl Ap_CO_USA,                  !- Name
  39.83,                                  !- Latitude {deg}
  -104.65,                                !- Longitude {deg}
  -7,                                     !- Time Zone {hr}
  1650,                                   !- Elevation {m}
  Suburbs;                                !- Terrain

OS:WeatherFile,
  {c2edf623-b106-4be5-8f07-eac15dc82c27}, !- Handle
  Denver Intl Ap,                         !- City
  CO,                                     !- State Province Region
  USA,                                    !- Country
  TMY3,                                   !- Data Source
  725650,                                 !- WMO Number
  39.83,                                  !- Latitude {deg}
  -104.65,                                !- Longitude {deg}
  -7,                                     !- Time Zone {hr}
  1650,                                   !- Elevation {m}
  file:../tests/USA_CO_Denver_Intl_AP_725650_TMY3.epw, !- Url
  E23378AA;                               !- Checksum

OS:ClimateZones,
  {5c76e55d-9eed-4442-820a-969f2b31ffe4}, !- Handle
  ,                                       !- Active Institution
  ,                                       !- Active Year
  ,                                       !- Climate Zone Institution Name 1
  ,                                       !- Climate Zone Document Name 1
  ,                                       !- Climate Zone Document Year 1
  ,                                       !- Climate Zone Value 1
  Building America,                       !- Climate Zone Institution Name 2
  ,                                       !- Climate Zone Document Name 2
  0,                                      !- Climate Zone Document Year 2
  Cold;                                   !- Climate Zone Value 2

OS:Site:WaterMainsTemperature,
  {e1ab5e48-a8f7-4cd5-b178-e614f5c70f8a}, !- Handle
  Correlation,                            !- Calculation Method
  ,                                       !- Temperature Schedule Name
  10.8753424657535,                       !- Annual Average Outdoor Air Temperature {C}
  23.1524007936508;                       !- Maximum Difference In Monthly Average Outdoor Air Temperatures {deltaC}

OS:RunPeriodControl:DaylightSavingTime,
  {206c3a00-1f96-4535-8136-9619ceb66fa1}, !- Handle
  4/7,                                    !- Start Date
  10/26;                                  !- End Date

OS:Site:GroundTemperature:BuildingSurface,
  {a5e1a4af-a04d-4d29-b6fb-d22ea6f209b4}, !- Handle
  6.71220717182217,                       !- January Ground Temperature {C}
  4.94160315792055,                       !- February Ground Temperature {C}
  4.79814094732353,                       !- March Ground Temperature {C}
  5.63626323951138,                       !- April Ground Temperature {C}
  9.00496422788996,                       !- May Ground Temperature {C}
  12.3607918495591,                       !- June Ground Temperature {C}
  15.2732325604715,                       !- July Ground Temperature {C}
  17.1228426206644,                       !- August Ground Temperature {C}
  17.2883239591317,                       !- September Ground Temperature {C}
  15.7978912711895,                       !- October Ground Temperature {C}
  12.9685430093462,                       !- November Ground Temperature {C}
  9.71587840323366;                       !- December Ground Temperature {C}

OS:Site:GroundTemperature:Deep,
  {1dca65a7-4d9a-43ba-b760-c96c1564976a}, !- Handle
  10.8753424657535,                       !- January Deep Ground Temperature {C}
  10.8753424657535,                       !- February Deep Ground Temperature {C}
  10.8753424657535,                       !- March Deep Ground Temperature {C}
  10.8753424657535,                       !- April Deep Ground Temperature {C}
  10.8753424657535,                       !- May Deep Ground Temperature {C}
  10.8753424657535,                       !- June Deep Ground Temperature {C}
  10.8753424657535,                       !- July Deep Ground Temperature {C}
  10.8753424657535,                       !- August Deep Ground Temperature {C}
  10.8753424657535,                       !- September Deep Ground Temperature {C}
  10.8753424657535,                       !- October Deep Ground Temperature {C}
  10.8753424657535,                       !- November Deep Ground Temperature {C}
  10.8753424657535;                       !- December Deep Ground Temperature {C}

OS:ThermalZone,
  {9c7419c6-7eec-42f9-865f-0e5edf3a23d3}, !- Handle
  living zone,                            !- Name
  ,                                       !- Multiplier
  ,                                       !- Ceiling Height {m}
  ,                                       !- Volume {m3}
  ,                                       !- Floor Area {m2}
  ,                                       !- Zone Inside Convection Algorithm
  ,                                       !- Zone Outside Convection Algorithm
  ,                                       !- Zone Conditioning Equipment List Name
  {a9175379-2ee7-48a8-8fa2-309d97c7f873}, !- Zone Air Inlet Port List
  {66c3c23d-3531-4253-bdbd-978eaf3ada9d}, !- Zone Air Exhaust Port List
  {dda5422c-524f-4941-aae9-7ef17e2cc1ae}, !- Zone Air Node Name
  {7e89b261-c991-43b8-a430-7ed556e27826}, !- Zone Return Air Node Name
  ,                                       !- Primary Daylighting Control Name
  ,                                       !- Fraction of Zone Controlled by Primary Daylighting Control
  ,                                       !- Secondary Daylighting Control Name
  ,                                       !- Fraction of Zone Controlled by Secondary Daylighting Control
  ,                                       !- Illuminance Map Name
  ,                                       !- Group Rendering Name
  {2cea4ed4-d818-4218-8dbc-f1ed962b9d65}, !- Thermostat Name
  No;                                     !- Use Ideal Air Loads

OS:Node,
  {fd9f8ae0-9a05-4b5d-b44d-f11ca63918b5}, !- Handle
  Node 1,                                 !- Name
  {dda5422c-524f-4941-aae9-7ef17e2cc1ae}, !- Inlet Port
  ;                                       !- Outlet Port

OS:Connection,
  {dda5422c-524f-4941-aae9-7ef17e2cc1ae}, !- Handle
  {75fe3a45-3f45-45ad-952a-1b3f0d8eaeec}, !- Name
  {9c7419c6-7eec-42f9-865f-0e5edf3a23d3}, !- Source Object
  11,                                     !- Outlet Port
  {fd9f8ae0-9a05-4b5d-b44d-f11ca63918b5}, !- Target Object
  2;                                      !- Inlet Port

OS:PortList,
  {a9175379-2ee7-48a8-8fa2-309d97c7f873}, !- Handle
  {30e5ef26-59fc-483e-8541-f4ebd751782d}, !- Name
  {9c7419c6-7eec-42f9-865f-0e5edf3a23d3}, !- HVAC Component
  {e4b09e1a-9deb-49d9-91f9-fae938f13c94}; !- Port 1

OS:PortList,
  {66c3c23d-3531-4253-bdbd-978eaf3ada9d}, !- Handle
  {dd00c0da-80ad-4549-ada9-e436421600e8}, !- Name
  {9c7419c6-7eec-42f9-865f-0e5edf3a23d3}; !- HVAC Component

OS:Sizing:Zone,
  {97e4e863-fe75-43ef-bd18-6272d0585470}, !- Handle
  {9c7419c6-7eec-42f9-865f-0e5edf3a23d3}, !- Zone or ZoneList Name
  SupplyAirTemperature,                   !- Zone Cooling Design Supply Air Temperature Input Method
  14,                                     !- Zone Cooling Design Supply Air Temperature {C}
  11.11,                                  !- Zone Cooling Design Supply Air Temperature Difference {deltaC}
  SupplyAirTemperature,                   !- Zone Heating Design Supply Air Temperature Input Method
  40,                                     !- Zone Heating Design Supply Air Temperature {C}
  11.11,                                  !- Zone Heating Design Supply Air Temperature Difference {deltaC}
  0.0085,                                 !- Zone Cooling Design Supply Air Humidity Ratio {kg-H2O/kg-air}
  0.008,                                  !- Zone Heating Design Supply Air Humidity Ratio {kg-H2O/kg-air}
  ,                                       !- Zone Heating Sizing Factor
  ,                                       !- Zone Cooling Sizing Factor
  DesignDay,                              !- Cooling Design Air Flow Method
  ,                                       !- Cooling Design Air Flow Rate {m3/s}
  ,                                       !- Cooling Minimum Air Flow per Zone Floor Area {m3/s-m2}
  ,                                       !- Cooling Minimum Air Flow {m3/s}
  ,                                       !- Cooling Minimum Air Flow Fraction
  DesignDay,                              !- Heating Design Air Flow Method
  ,                                       !- Heating Design Air Flow Rate {m3/s}
  ,                                       !- Heating Maximum Air Flow per Zone Floor Area {m3/s-m2}
  ,                                       !- Heating Maximum Air Flow {m3/s}
  ,                                       !- Heating Maximum Air Flow Fraction
  ,                                       !- Design Zone Air Distribution Effectiveness in Cooling Mode
  ,                                       !- Design Zone Air Distribution Effectiveness in Heating Mode
  No,                                     !- Account for Dedicated Outdoor Air System
  NeutralSupplyAir,                       !- Dedicated Outdoor Air System Control Strategy
  autosize,                               !- Dedicated Outdoor Air Low Setpoint Temperature for Design {C}
  autosize;                               !- Dedicated Outdoor Air High Setpoint Temperature for Design {C}

OS:ZoneHVAC:EquipmentList,
  {75a739ae-1e20-4151-b1d4-e8cc9e4c4403}, !- Handle
  Zone HVAC Equipment List 1,             !- Name
  {9c7419c6-7eec-42f9-865f-0e5edf3a23d3}, !- Thermal Zone
  {5b429fa4-1be2-4464-94f1-5b9659e65213}, !- Zone Equipment 1
  1,                                      !- Zone Equipment Cooling Sequence 1
  1;                                      !- Zone Equipment Heating or No-Load Sequence 1

OS:Space,
  {45b6b7b5-6e6c-45f8-886e-a3d9482419e3}, !- Handle
  living space,                           !- Name
  ,                                       !- Space Type Name
  ,                                       !- Default Construction Set Name
  ,                                       !- Default Schedule Set Name
  -0,                                     !- Direction of Relative North {deg}
  0,                                      !- X Origin {m}
  0,                                      !- Y Origin {m}
  0,                                      !- Z Origin {m}
  ,                                       !- Building Story Name
  {9c7419c6-7eec-42f9-865f-0e5edf3a23d3}, !- Thermal Zone Name
  ,                                       !- Part of Total Floor Area
  ,                                       !- Design Specification Outdoor Air Object Name
  {201969bf-9bb6-4fe7-ac66-b14adafae218}; !- Building Unit Name

OS:Surface,
  {5e8c0c41-3e4b-4dbb-87c1-6bd70ad54422}, !- Handle
  Surface 1,                              !- Name
  Floor,                                  !- Surface Type
  {db8ce086-c1d7-4053-a0cd-df3dd9d57c54}, !- Construction Name
  {45b6b7b5-6e6c-45f8-886e-a3d9482419e3}, !- Space Name
  Ground,                                 !- Outside Boundary Condition
  ,                                       !- Outside Boundary Condition Object
  NoSun,                                  !- Sun Exposure
  NoWind,                                 !- Wind Exposure
  ,                                       !- View Factor to Ground
  ,                                       !- Number of Vertices
  0, 0, 0,                                !- X,Y,Z Vertex 1 {m}
  0, 4.81931115409661, 0,                 !- X,Y,Z Vertex 2 {m}
  9.63862230819322, 4.81931115409661, 0,  !- X,Y,Z Vertex 3 {m}
  9.63862230819322, 0, 0;                 !- X,Y,Z Vertex 4 {m}

OS:Surface,
  {febaf391-2608-483a-8f09-0e363f87e28d}, !- Handle
  Surface 2,                              !- Name
  Wall,                                   !- Surface Type
  {f4a80d68-67e2-4657-8264-d5a86a897541}, !- Construction Name
  {45b6b7b5-6e6c-45f8-886e-a3d9482419e3}, !- Space Name
  Outdoors,                               !- Outside Boundary Condition
  ,                                       !- Outside Boundary Condition Object
  SunExposed,                             !- Sun Exposure
  WindExposed,                            !- Wind Exposure
  ,                                       !- View Factor to Ground
  ,                                       !- Number of Vertices
  0, 4.81931115409661, 2.4384,            !- X,Y,Z Vertex 1 {m}
  0, 4.81931115409661, 0,                 !- X,Y,Z Vertex 2 {m}
  0, 0, 0,                                !- X,Y,Z Vertex 3 {m}
  0, 0, 2.4384;                           !- X,Y,Z Vertex 4 {m}

OS:Surface,
  {cab3fb0f-9a31-4ba1-9dee-d3653f12d121}, !- Handle
  Surface 3,                              !- Name
  Wall,                                   !- Surface Type
  {f4a80d68-67e2-4657-8264-d5a86a897541}, !- Construction Name
  {45b6b7b5-6e6c-45f8-886e-a3d9482419e3}, !- Space Name
  Outdoors,                               !- Outside Boundary Condition
  ,                                       !- Outside Boundary Condition Object
  SunExposed,                             !- Sun Exposure
  WindExposed,                            !- Wind Exposure
  ,                                       !- View Factor to Ground
  ,                                       !- Number of Vertices
  9.63862230819322, 4.81931115409661, 2.4384, !- X,Y,Z Vertex 1 {m}
  9.63862230819322, 4.81931115409661, 0,  !- X,Y,Z Vertex 2 {m}
  0, 4.81931115409661, 0,                 !- X,Y,Z Vertex 3 {m}
  0, 4.81931115409661, 2.4384;            !- X,Y,Z Vertex 4 {m}

OS:Surface,
  {07e71ecb-c942-4c8c-ac96-7e6125c8eaaa}, !- Handle
  Surface 4,                              !- Name
  Wall,                                   !- Surface Type
  {f4a80d68-67e2-4657-8264-d5a86a897541}, !- Construction Name
  {45b6b7b5-6e6c-45f8-886e-a3d9482419e3}, !- Space Name
  Outdoors,                               !- Outside Boundary Condition
  ,                                       !- Outside Boundary Condition Object
  SunExposed,                             !- Sun Exposure
  WindExposed,                            !- Wind Exposure
  ,                                       !- View Factor to Ground
  ,                                       !- Number of Vertices
  9.63862230819322, 0, 2.4384,            !- X,Y,Z Vertex 1 {m}
  9.63862230819322, 0, 0,                 !- X,Y,Z Vertex 2 {m}
  9.63862230819322, 4.81931115409661, 0,  !- X,Y,Z Vertex 3 {m}
  9.63862230819322, 4.81931115409661, 2.4384; !- X,Y,Z Vertex 4 {m}

OS:Surface,
  {78957293-cbe0-4e9b-8ac4-7539429b606e}, !- Handle
  Surface 5,                              !- Name
  Wall,                                   !- Surface Type
  {f4a80d68-67e2-4657-8264-d5a86a897541}, !- Construction Name
  {45b6b7b5-6e6c-45f8-886e-a3d9482419e3}, !- Space Name
  Outdoors,                               !- Outside Boundary Condition
  ,                                       !- Outside Boundary Condition Object
  SunExposed,                             !- Sun Exposure
  WindExposed,                            !- Wind Exposure
  ,                                       !- View Factor to Ground
  ,                                       !- Number of Vertices
  9.63862230819322, 0, 0,                 !- X,Y,Z Vertex 1 {m}
  9.63862230819322, 0, 2.4384,            !- X,Y,Z Vertex 2 {m}
  1.04865714285714, 0, 2.4384,            !- X,Y,Z Vertex 3 {m}
  1.04865714285714, 0, 0;                 !- X,Y,Z Vertex 4 {m}

OS:Surface,
  {79534cab-db59-4bdd-a641-7137eebc2190}, !- Handle
  Surface 6,                              !- Name
  RoofCeiling,                            !- Surface Type
  {dc2691ad-ebdb-46c5-8701-ecc4648bde74}, !- Construction Name
  {45b6b7b5-6e6c-45f8-886e-a3d9482419e3}, !- Space Name
  Surface,                                !- Outside Boundary Condition
  {589ee0c9-acc2-4f28-88c4-9af4a2a93f90}, !- Outside Boundary Condition Object
  NoSun,                                  !- Sun Exposure
  NoWind,                                 !- Wind Exposure
  ,                                       !- View Factor to Ground
  ,                                       !- Number of Vertices
  9.63862230819322, 0, 2.4384,            !- X,Y,Z Vertex 1 {m}
  9.63862230819322, 4.81931115409661, 2.4384, !- X,Y,Z Vertex 2 {m}
  0, 4.81931115409661, 2.4384,            !- X,Y,Z Vertex 3 {m}
  0, 0, 2.4384;                           !- X,Y,Z Vertex 4 {m}

OS:Space,
  {eff8789f-dba9-4e68-b61c-b51251719726}, !- Handle
  living space|story 2,                   !- Name
  ,                                       !- Space Type Name
  ,                                       !- Default Construction Set Name
  ,                                       !- Default Schedule Set Name
  -0,                                     !- Direction of Relative North {deg}
  0,                                      !- X Origin {m}
  0,                                      !- Y Origin {m}
  2.4384,                                 !- Z Origin {m}
  ,                                       !- Building Story Name
  {9c7419c6-7eec-42f9-865f-0e5edf3a23d3}, !- Thermal Zone Name
  ,                                       !- Part of Total Floor Area
  ,                                       !- Design Specification Outdoor Air Object Name
  {201969bf-9bb6-4fe7-ac66-b14adafae218}; !- Building Unit Name

OS:Surface,
  {589ee0c9-acc2-4f28-88c4-9af4a2a93f90}, !- Handle
  Surface 7,                              !- Name
  Floor,                                  !- Surface Type
  {9efd3e3f-5bd2-453d-b99e-2b62a06aff37}, !- Construction Name
  {eff8789f-dba9-4e68-b61c-b51251719726}, !- Space Name
  Surface,                                !- Outside Boundary Condition
  {79534cab-db59-4bdd-a641-7137eebc2190}, !- Outside Boundary Condition Object
  NoSun,                                  !- Sun Exposure
  NoWind,                                 !- Wind Exposure
  ,                                       !- View Factor to Ground
  ,                                       !- Number of Vertices
  0, 0, 0,                                !- X,Y,Z Vertex 1 {m}
  0, 4.81931115409661, 0,                 !- X,Y,Z Vertex 2 {m}
  9.63862230819322, 4.81931115409661, 0,  !- X,Y,Z Vertex 3 {m}
  9.63862230819322, 0, 0;                 !- X,Y,Z Vertex 4 {m}

OS:Surface,
  {bfe6f8e0-2a4f-4946-9c84-f4f6562dec9f}, !- Handle
  Surface 8,                              !- Name
  Wall,                                   !- Surface Type
  {f4a80d68-67e2-4657-8264-d5a86a897541}, !- Construction Name
  {eff8789f-dba9-4e68-b61c-b51251719726}, !- Space Name
  Outdoors,                               !- Outside Boundary Condition
  ,                                       !- Outside Boundary Condition Object
  SunExposed,                             !- Sun Exposure
  WindExposed,                            !- Wind Exposure
  ,                                       !- View Factor to Ground
  ,                                       !- Number of Vertices
  0, 4.81931115409661, 2.4384,            !- X,Y,Z Vertex 1 {m}
  0, 4.81931115409661, 0,                 !- X,Y,Z Vertex 2 {m}
  0, 0, 0,                                !- X,Y,Z Vertex 3 {m}
  0, 0, 2.4384;                           !- X,Y,Z Vertex 4 {m}

OS:Surface,
  {85065c79-42aa-4ea0-a716-ebd756c2aaed}, !- Handle
  Surface 9,                              !- Name
  Wall,                                   !- Surface Type
  {f4a80d68-67e2-4657-8264-d5a86a897541}, !- Construction Name
  {eff8789f-dba9-4e68-b61c-b51251719726}, !- Space Name
  Outdoors,                               !- Outside Boundary Condition
  ,                                       !- Outside Boundary Condition Object
  SunExposed,                             !- Sun Exposure
  WindExposed,                            !- Wind Exposure
  ,                                       !- View Factor to Ground
  ,                                       !- Number of Vertices
  9.63862230819322, 4.81931115409661, 2.4384, !- X,Y,Z Vertex 1 {m}
  9.63862230819322, 4.81931115409661, 0,  !- X,Y,Z Vertex 2 {m}
  0, 4.81931115409661, 0,                 !- X,Y,Z Vertex 3 {m}
  0, 4.81931115409661, 2.4384;            !- X,Y,Z Vertex 4 {m}

OS:Surface,
  {0411e5bf-6237-4df2-a068-e2f9518b162e}, !- Handle
  Surface 10,                             !- Name
  Wall,                                   !- Surface Type
  {f4a80d68-67e2-4657-8264-d5a86a897541}, !- Construction Name
  {eff8789f-dba9-4e68-b61c-b51251719726}, !- Space Name
  Outdoors,                               !- Outside Boundary Condition
  ,                                       !- Outside Boundary Condition Object
  SunExposed,                             !- Sun Exposure
  WindExposed,                            !- Wind Exposure
  ,                                       !- View Factor to Ground
  ,                                       !- Number of Vertices
  9.63862230819322, 0, 2.4384,            !- X,Y,Z Vertex 1 {m}
  9.63862230819322, 0, 0,                 !- X,Y,Z Vertex 2 {m}
  9.63862230819322, 4.81931115409661, 0,  !- X,Y,Z Vertex 3 {m}
  9.63862230819322, 4.81931115409661, 2.4384; !- X,Y,Z Vertex 4 {m}

OS:Surface,
  {7e6ec5a8-3272-4199-85f4-53a2f485b78c}, !- Handle
  Surface 11,                             !- Name
  Wall,                                   !- Surface Type
  {f4a80d68-67e2-4657-8264-d5a86a897541}, !- Construction Name
  {eff8789f-dba9-4e68-b61c-b51251719726}, !- Space Name
  Outdoors,                               !- Outside Boundary Condition
  ,                                       !- Outside Boundary Condition Object
  SunExposed,                             !- Sun Exposure
  WindExposed,                            !- Wind Exposure
  ,                                       !- View Factor to Ground
  ,                                       !- Number of Vertices
  0, 0, 2.4384,                           !- X,Y,Z Vertex 1 {m}
  0, 0, 0,                                !- X,Y,Z Vertex 2 {m}
  9.63862230819322, 0, 0,                 !- X,Y,Z Vertex 3 {m}
  9.63862230819322, 0, 2.4384;            !- X,Y,Z Vertex 4 {m}

OS:Surface,
  {a3c92e38-e2a5-429d-8321-856445f60574}, !- Handle
  Surface 12,                             !- Name
  RoofCeiling,                            !- Surface Type
  {cf08cfcb-d219-4a56-8427-219c83768cb2}, !- Construction Name
  {eff8789f-dba9-4e68-b61c-b51251719726}, !- Space Name
  Surface,                                !- Outside Boundary Condition
  {83c41bdc-9373-4a9c-8f52-5b919916cba1}, !- Outside Boundary Condition Object
  NoSun,                                  !- Sun Exposure
  NoWind,                                 !- Wind Exposure
  ,                                       !- View Factor to Ground
  ,                                       !- Number of Vertices
  9.63862230819322, 0, 2.4384,            !- X,Y,Z Vertex 1 {m}
  9.63862230819322, 4.81931115409661, 2.4384, !- X,Y,Z Vertex 2 {m}
  0, 4.81931115409661, 2.4384,            !- X,Y,Z Vertex 3 {m}
  0, 0, 2.4384;                           !- X,Y,Z Vertex 4 {m}

OS:Surface,
  {83c41bdc-9373-4a9c-8f52-5b919916cba1}, !- Handle
  Surface 13,                             !- Name
  Floor,                                  !- Surface Type
  {06f22c7b-3561-4e36-8a54-bd8d098324f6}, !- Construction Name
  {556b85d0-cd17-40f7-aa05-b9e897bbdd70}, !- Space Name
  Surface,                                !- Outside Boundary Condition
  {a3c92e38-e2a5-429d-8321-856445f60574}, !- Outside Boundary Condition Object
  NoSun,                                  !- Sun Exposure
  NoWind,                                 !- Wind Exposure
  ,                                       !- View Factor to Ground
  ,                                       !- Number of Vertices
  0, 4.81931115409661, 0,                 !- X,Y,Z Vertex 1 {m}
  9.63862230819322, 4.81931115409661, 0,  !- X,Y,Z Vertex 2 {m}
  9.63862230819322, 0, 0,                 !- X,Y,Z Vertex 3 {m}
  0, 0, 0;                                !- X,Y,Z Vertex 4 {m}

OS:Surface,
  {625f4233-efdf-4bf0-af5d-46920277e2f4}, !- Handle
  Surface 14,                             !- Name
  RoofCeiling,                            !- Surface Type
  {7d020d8b-587b-452c-ab56-25b79956c454}, !- Construction Name
  {556b85d0-cd17-40f7-aa05-b9e897bbdd70}, !- Space Name
  Outdoors,                               !- Outside Boundary Condition
  ,                                       !- Outside Boundary Condition Object
  SunExposed,                             !- Sun Exposure
  WindExposed,                            !- Wind Exposure
  ,                                       !- View Factor to Ground
  ,                                       !- Number of Vertices
  9.63862230819322, 2.40965557704831, 1.20482778852415, !- X,Y,Z Vertex 1 {m}
  0, 2.40965557704831, 1.20482778852415,  !- X,Y,Z Vertex 2 {m}
  0, 0, 0,                                !- X,Y,Z Vertex 3 {m}
  9.63862230819322, 0, 0;                 !- X,Y,Z Vertex 4 {m}

OS:Surface,
  {7f1c79c9-d946-44b8-9001-016b7f994b0d}, !- Handle
  Surface 15,                             !- Name
  RoofCeiling,                            !- Surface Type
  {7d020d8b-587b-452c-ab56-25b79956c454}, !- Construction Name
  {556b85d0-cd17-40f7-aa05-b9e897bbdd70}, !- Space Name
  Outdoors,                               !- Outside Boundary Condition
  ,                                       !- Outside Boundary Condition Object
  SunExposed,                             !- Sun Exposure
  WindExposed,                            !- Wind Exposure
  ,                                       !- View Factor to Ground
  ,                                       !- Number of Vertices
  0, 2.40965557704831, 1.20482778852415,  !- X,Y,Z Vertex 1 {m}
  9.63862230819322, 2.40965557704831, 1.20482778852415, !- X,Y,Z Vertex 2 {m}
  9.63862230819322, 4.81931115409661, 0,  !- X,Y,Z Vertex 3 {m}
  0, 4.81931115409661, 0;                 !- X,Y,Z Vertex 4 {m}

OS:Surface,