!- NOTE: Auto-generated from /test/osw_files/SFD_Successful_EnergyPlus_Run_AMY.osw

OS:Version,
  {9c84b3ea-90f6-42c1-a6e4-10816dc573dd}, !- Handle
  2.2.1;                                  !- Version Identifier

OS:Building,
  {bf305633-c5a1-4881-9edf-ca5e1a8e1274}, !- Handle
  Building,                               !- Name
  ,                                       !- Building Sector Type
  22.5,                                   !- North Axis {deg}
  ,                                       !- Nominal Floor to Floor Height {m}
  ,                                       !- Space Type Name
  ,                                       !- Default Construction Set Name
  ,                                       !- Default Schedule Set Name
  2,                                      !- Standards Number of Stories
  2,                                      !- Standards Number of Above Ground Stories
  singlefamilydetached,                   !- Standards Building Type
  1;                                      !- Standards Number of Living Units

OS:YearDescription,
  {513d8dda-86cb-442a-b01c-1f7f0e0ac70e}; !- Handle

OS:SimulationControl,
  {2c487a4c-bac9-4ac5-b669-1e49d9da7c2b}, !- Handle
  ,                                       !- Do Zone Sizing Calculation
  ,                                       !- Do System Sizing Calculation
  ,                                       !- Do Plant Sizing Calculation
  No,                                     !- Run Simulation for Sizing Periods
  ;                                       !- Run Simulation for Weather File Run Periods

OS:Timestep,
  {4ebc9f1e-4707-402e-9844-67eb1ffbd522}, !- Handle
  6;                                      !- Number of Timesteps per Hour

OS:RunPeriod,
  {28df894d-6af9-4fb8-8f56-df1753344aa3}, !- Handle
  Run Period,                             !- Name
  1,                                      !- Begin Month
  1,                                      !- Begin Day of Month
  12,                                     !- End Month
  31,                                     !- End Day of Month
  ,                                       !- Use Weather File Holidays and Special Days
  ,                                       !- Use Weather File Daylight Saving Period
  ,                                       !- Apply Weekend Holiday Rule
  ,                                       !- Use Weather File Rain Indicators
  ,                                       !- Use Weather File Snow Indicators
  ;                                       !- Number of Times Runperiod to be Repeated

OS:Sizing:Parameters,
  {dde5af6f-7923-4600-a28a-7556673a0266}, !- Handle
  1.0,                                    !- Heating Sizing Factor
  1.0;                                    !- Cooling Sizing Factor

OS:ShadowCalculation,
  {ca758bea-4416-4626-9bba-3d8795c79bd6}, !- Handle
  20,                                     !- Calculation Frequency
  200;                                    !- Maximum Figures in Shadow Overlap Calculations

OS:SurfaceConvectionAlgorithm:Inside,
  {aaabfc36-718a-4ab0-b622-f186ebb45230}, !- Handle
  TARP;                                   !- Algorithm

OS:SurfaceConvectionAlgorithm:Outside,
  {9a0a9f6f-4bbd-4b12-a121-9492a1fcd7d6}, !- Handle
  DOE-2;                                  !- Algorithm

OS:HeatBalanceAlgorithm,
  {9d93e563-e1e0-46d7-9e39-d1c8aceb7212}, !- Handle
  ConductionTransferFunction,             !- Algorithm
  200;                                    !- Surface Temperature Upper Limit {C}

OS:ZoneCapacitanceMultiplier:ResearchSpecial,
  {6bfced16-b16f-47f6-8223-f7e267d75d19}, !- Handle
  ,                                       !- Temperature Capacity Multiplier
  15,                                     !- Humidity Capacity Multiplier
  ;                                       !- Carbon Dioxide Capacity Multiplier

OS:Site,
  {2dfb266a-b7b0-4426-9ccb-84db930502a8}, !- Handle
  Dupage_Illinois_United States,          !- Name
  41.77,                                  !- Latitude {deg}
  -88.06,                                 !- Longitude {deg}
  -6,                                     !- Time Zone {hr}
  210.2,                                  !- Elevation {m}
  Suburbs;                                !- Terrain

OS:WeatherFile,
  {a96728d1-07ba-46bf-a02a-60e62bff3b7f}, !- Handle
  Dupage,                                 !- City
  Illinois,                               !- State Province Region
  United States,                          !- Country
  NSRDB AMY,                              !- Data Source
  725300,                                 !- WMO Number
  41.77,                                  !- Latitude {deg}
  -88.06,                                 !- Longitude {deg}
  -6,                                     !- Time Zone {hr}
  210.2,                                  !- Elevation {m}
  file:../tests/DuPage_17043_725300_880860.epw, !- Url
  335AE046;                               !- Checksum

OS:BuildingUnit,
  {c636c434-2d2a-4ea2-ad71-dd3630f089fe}, !- Handle
  EPWWeatherInfo,                         !- Name
  ,                                       !- Rendering Color
  Residential,                            !- Building Unit Type
  EPWHeaderCity,                          !- Building Unit Feature Name 1
  String,                                 !- Building Unit Feature Data Type 1
  Dupage,                                 !- Building Unit Feature Value 1
  EPWHeaderState,                         !- Building Unit Feature Name 2
  String,                                 !- Building Unit Feature Data Type 2
  Illinois,                               !- Building Unit Feature Value 2
  EPWHeaderCountry,                       !- Building Unit Feature Name 3
  String,                                 !- Building Unit Feature Data Type 3
  United States,                          !- Building Unit Feature Value 3
  EPWHeaderDataSource,                    !- Building Unit Feature Name 4
  String,                                 !- Building Unit Feature Data Type 4
  NSRDB AMY,                              !- Building Unit Feature Value 4
  EPWHeaderStation,                       !- Building Unit Feature Name 5
  String,                                 !- Building Unit Feature Data Type 5
  725300,                                 !- Building Unit Feature Value 5
  EPWHeaderLatitude,                      !- Building Unit Feature Name 6
  Double,                                 !- Building Unit Feature Data Type 6
  41.770000000000003,                     !- Building Unit Feature Value 6
  EPWHeaderLongitude,                     !- Building Unit Feature Name 7
  Double,                                 !- Building Unit Feature Data Type 7
  -88.060000000000002,                    !- Building Unit Feature Value 7
  EPWHeaderTimezone,                      !- Building Unit Feature Name 8
  Double,                                 !- Building Unit Feature Data Type 8
  -6,                                     !- Building Unit Feature Value 8
  EPWHeaderAltitude,                      !- Building Unit Feature Name 9
  Double,                                 !- Building Unit Feature Data Type 9
  689.63254593175839,                     !- Building Unit Feature Value 9
  EPWHeaderLocalPressure,                 !- Building Unit Feature Name 10
  Double,                                 !- Building Unit Feature Data Type 10
  0.97494084883101129,                    !- Building Unit Feature Value 10
  EPWDataAnnualAvgDrybulb,                !- Building Unit Feature Name 11
  Double,                                 !- Building Unit Feature Data Type 11
  54.906972602739614,                     !- Building Unit Feature Value 11
  EPWDataAnnualMinDrybulb,                !- Building Unit Feature Name 12
  Double,                                 !- Building Unit Feature Data Type 12
  4.9999999999999369,                     !- Building Unit Feature Value 12
  EPWDataAnnualMaxDrybulb,                !- Building Unit Feature Name 13
  Double,                                 !- Building Unit Feature Data Type 13
  105.61999999999989,                     !- Building Unit Feature Value 13
  EPWDataCDD50F,                          !- Building Unit Feature Name 14
  Double,                                 !- Building Unit Feature Data Type 14
  4059.1724999999806,                     !- Building Unit Feature Value 14
  EPWDataCDD65F,                          !- Building Unit Feature Name 15
  Double,                                 !- Building Unit Feature Data Type 15
  1474.2599999999916,                     !- Building Unit Feature Value 15
  EPWDataHDD50F,                          !- Building Unit Feature Name 16
  Double,                                 !- Building Unit Feature Data Type 16
  2286.1275000000146,                     !- Building Unit Feature Value 16
  EPWDataHDD65F,                          !- Building Unit Feature Name 17
  Double,                                 !- Building Unit Feature Data Type 17
  5191.2150000000174,                     !- Building Unit Feature Value 17
  EPWDataAnnualAvgWindspeed,              !- Building Unit Feature Name 18
  Double,                                 !- Building Unit Feature Data Type 18
  3.5781963470319624,                     !- Building Unit Feature Value 18
  EPWDataMonthlyAvgDrybulbs,              !- Building Unit Feature Name 19
  String,                                 !- Building Unit Feature Data Type 19
  28.412822580645084&#4432.03827586206894&#4452.6308064516129&#4452.12774999999999&#4466.17846774193544&#4475.40399999999995&#4483.12217741935483&#4476.57975806451604&#4465.01274999999994&#4451.19032258064514&#4439.68199999999994&#4434.69661290322575, !- Building Unit Feature Value 19
  EPWDataMainsDailyTemps,                 !- Building Unit Feature Name 20
  String,                                 !- Building Unit Feature Data Type 20
  49.86802243046987&#4449.723581199899584&#4449.58245182476964&#4449.4446760992078&#4449.31029482419022&#4449.179347795458725&#4449.05187379173559&#4448.927910563239664&#4448.80749482050693&#4448.69066222351909&#4448.577447371143165&#4448.46788379088535&#4448.36200392896223&#4448.25983914069206&#4448.16141968120923&#4448.066774696504496&#4447.97593221479363&#4447.88891913821718&#4447.80576123487364&#4447.72648313118845&#4447.65110830462113&#4447.57965907671265&#4447.51215660647513&#4447.44862088412579&#4447.389070725166995&#4447.33352376481432&#4447.28199645277395&#4447.2345040483713&#4447.19106061603211&#4447.1516790211174&#4447.1163709261135&#4447.08514678717831&#4447.05801585104485&#4447.03498615228288&#4447.01606451091956&#4447.00125653041978&#4446.99056659602668&#4446.98399787346311&#4446.981552307994036&#4446.98323062385049&#4446.98903232401514&#4446.99895569036944&#4447.012997784202426&#4447.03115444708101&#4447.05342030208145&#4447.07978875538167&#4447.110251998214&#4447.14480100917758&#4447.18342555691006&#4447.22611420311746&#4447.27285430596153&#4447.32363202380351&#4447.3784323193032&#4447.43723896387215&#4447.500034542479526&#4447.56680045880951&#4447.637516940768364&#4447.71216304633973&#4447.79071666978646&#4447.87315454819701&#4447.95945226837446&#4448.04958427406639&#4448.14352387353297&#4448.24124324745159&#4448.342713457155206&#4448.447904453202284&#4448.55678508427567&#4448.66932310640773&#4448.785485192529116&#4448.905236942338256&#4449.02854289248867&#4449.15536652709112&#4449.28567028852743&#4449.41941558857282&#4449.55656281982344&#4449.697071367425764&#4449.84089962110425&#4449.988004987483826&#4450.13834390270356&#4450.291871845317644&#4450.448543349480005&#4450.60831201840861&#4450.77113053812541&#4450.93695069146792&#4451.1057233723683&#4451.27739860039563&#4451.45192553555715&#4451.62925249335405&#4451.80932696008733&#4451.99209560840926&#4452.177504313115705&#4452.36549816717489&#4452.55602149798751&#4452.749017883873684&#4452.944430170781715&#4453.14220048921367&#4453.342270271362935&#4453.54458026845849&#4453.74907056831088&#4453.95568061305462&#4454.164349217081885&#4454.375014585161985&#4454.587614330741495&#4454.802085494419394&#4455.01836456259193&#4455.23638748626155&#4455.456089700004405&#4455.67740614109083&#4455.90027126875298&#4456.12461908359417&#4456.35038314713395&#4456.577496601483226&#4456.805892189143606&#4457.035502272925044&#4457.26625885597599&#4457.49809360192&#4457.730937855092854&#4457.96472266087439&#4458.19937878610867&#4458.43483673960673&#4458.671026792725804&#4458.90787900001873&#4459.14532321994768&#4459.38328913565585&#4459.62170627579122&#4459.860504035375904&#4460.09961169671518&#4460.338958450339845&#4460.57847341597579&#4460.81808566353452&#4461.05772423411839&#4461.29731816103448&#4461.536796490810644&#4461.77608830420773&#4462.015122737221674&#4462.253829002069146&#4462.492136408150714&#4462.7299743829852&#4462.96727249310905&#4463.20396046493452&#4463.43996820556053&#4463.67522582353007&#4463.9096636495278&#4464.14321225701204&#4464.37580248277476&#4464.60736544742353&#4464.83783257577969&#4465.06713561718598&#4465.29520666571858&#4465.52197818029661&#4465.74738300468394&#4465.97135438737672&#4466.1938260013713&#4466.41473196380637&#4466.63400685547346&#4466.85158574019026&#4467.06740418403086&#4467.28139827440725&#4467.4935046389964&#4467.70366046450742&#4467.91180351528307&#4468.11787215173028&#4468.32180534857417&#4468.52354271293004&#4468.72302450218818&#4468.92019164170611&#4469.11498574230293&#4469.30734911755076&#4469.49722480085795&#4469.68455656233932&#4469.86928892546804&#4470.05136718350444&#4470.23073741569696&#4470.40734650325025&#4470.5811421450558&#4470.75207287318035&#4470.92008806810779&#4471.08513797372947&#4471.24717371207913&#4471.40614729780756&#4471.56201165239308&#4471.71472061808335&#4471.86422897156456&#4472.01049243735389&#4472.1534677009113&#4472.29311242146667&#4472.42938524455865&#4472.5622458142814&#4472.69165478523557&#4472.81757383418014&#4472.93996567138137&#4473.05879405165594&#4473.1740237851045&#4473.28562074753289&#4473.39355189055769&#4473.49778525139314&#4473.5982899623167&#4473.69503625981015&#4473.78799549337383&#4473.87714013401117&#4473.96244378238119&#4474.04388117661638&#4474.12142819980376&#4474.19506188712691&#4474.26476043266675&#4474.33050319585918&#4474.39227070760754&#4474.45004467604828&#4474.50380799196783&#4474.55354473386943&#4474.59924017268803&#4474.64088077615222&#4474.67845421279169&#4474.71194935558907&#4474.74135628527506&#4474.76666629326596&#4474.78787188424263&#4474.80496677837014&#4474.81794591315753&#4474.82680544495696&#4474.83154275010197&#4474.83215642568456&#4474.82864628997048&#4474.82101338245319&#4474.80925996354595&#4474.79338951391246&#4474.77340673343606&#4474.7493175398279&#4474.72112906687452&#4474.68884966232523&#4474.65248888541988&#4474.61205750405821&#4474.56756749161087&#4474.51903202337364&#4474.46646547266573&#4474.40988340657326&#4474.34930258133917&#4474.28474093740108&#4474.21621759407833&#4474.14375284391005&#4474.06736814664562&#4473.98708612288968&#4473.90293054740316&#4473.81492634206266&#4473.72309956848007&#4473.62747742028465&#4473.52808821506989&#4473.42496138600754&#4473.31812747313128&#4473.20761811429253&#4473.09346603579121&#4472.97570504268417&#4472.85437000877415&#4472.72949686628223&#4472.60112259520682&#4472.46928521237237&#4472.33402376017114&#4472.19537829500106&#4472.05338987540345&#4471.90810054990395&#4471.75955334456017&#4471.60779225022002&#4471.45286220949419&#4471.29480910344681&#4471.13367973800823&#4470.96952183011389&#4470.8023839935734&#4470.63231572467399&#4470.4593673875227&#4470.2835901991315&#4470.10503621424984&#4469.92375830994918&#4469.7398101699639&#4469.55324626879339&#4469.36412185556995&#4469.17249293769723&#4468.97841626426428&#4468.78194930923972&#4468.58315025445145&#4468.38207797235661&#4468.17879200860709&#4467.97335256441562&#4467.76582047872779&#4467.55625721020513&#4467.34472481902473&#4467.1312859485007&#4466.91600380653298&#4466.69894214688884&#4466.4801652503229&#4466.25973790554092&#4466.03772539001328&#4465.81419345064367&#4465.58920828429873&#4465.36283651820455&#4465.13514519021554&#4464.90620172896193&#4464.67607393388134&#4464.4448299551406&#4464.21253827345382&#4463.97926767980231&#4463.74508725506303&#4463.51006634955069&#4463.27427456248046&#4463.037781721356765&#4462.80065786129458&#4462.56297320427912&#4462.32479813837035&#4462.08620319685815&#4461.84725903737459&#4461.60803642096935&#4461.36860619115448&#4461.12903925292475&#4460.889406551759876&#4460.64977905261464&#4460.41022771890325&#4460.17082349148429&#4459.93163726765217&#4459.69273988014165&#4459.45420207615131&#4459.2160944963925&#4458.97848765416971&#4458.741451914498775&#4458.505057473268906&#4458.26937433645487&#4458.034472299385364&#4457.800420926073784&#4457.56728952861751&#4457.33514714667181&#4457.10406252700432&#4456.874104103136474&#4456.64533997507744&#4456.41783788915699&#4456.19166521796309&#4455.9668889403901&#4455.74357562180368&#4455.521791394328&#4455.3016019372614&#4455.08307245762606&#4454.86626767085756&#4454.65125178164005&#4454.43808846489259&#4454.22684084691246&#4454.017571486680886&#4453.81034235733681&#4453.6052148278241&#4453.40224964471777&#4453.2015069142344&#4453.0030460844323&#4452.80692592760648&#4452.613204522883834&#4452.42193923902353&#4452.23318671742781&#4452.04700285536819&#4451.86344278943197&#4451.68256087919409&#4451.504410691119034&#4451.32904498269763&#4451.1565156868235&#4450.98687389641346&#4450.820169849276986&#4450.65645291323872&#4450.495771571518596&#4450.33817340837407&#4450.183705095008484&#4450.0324123757498, !- Building Unit Feature Value 20
  EPWDataMainsMonthlyTemps,               !- Building Unit Feature Name 21
  String,                                 !- Building Unit Feature Data Type 21
  48.16141968120923&#4447.05342030208145&#4449.55656281982344&#4455.01836456259193&#4462.015122737221674&#4468.72302450218818&#4473.39355189055769&#4474.80925996354595&#4472.60112259520682&#4467.34472481902473&#4460.41022771890325&#4453.6052148278241, !- Building Unit Feature Value 21
  EPWDataMainsAvgTemp,                    !- Building Unit Feature Name 22
  Double,                                 !- Building Unit Feature Data Type 22
  60.910321717436744,                     !- Building Unit Feature Value 22
  EPWDataGroundMonthlyTemps,              !- Building Unit Feature Name 23
  String,                                 !- Building Unit Feature Data Type 23
  44.96622372690152&#4440.78226871771097&#4440.44326607796511&#4442.42375744429081&#4450.38403160165842&#4458.31388586462479&#4465.19601241902124&#4469.56665950647546&#4469.95769356579756&#4466.43578620445803&#4459.750007938995275&#4452.06392891448536, !- Building Unit Feature Value 23
  EPWDataWSF,                             !- Building Unit Feature Name 24
  Double,                                 !- Building Unit Feature Data Type 24
  0,                                      !- Building Unit Feature Value 24
  EPWDataMonthlyAvgDailyHighDrybulbs,     !- Building Unit Feature Name 25
  String,                                 !- Building Unit Feature Data Type 25
  36.06451612903218&#4440.7235714285714&#4462.861290322580544&#4463.14599999999995&#4477.23225806451606&#4486.40199999999987&#4494.02451612903216&#4488.97290322580635&#4477.65999999999995&#4462.05419354838702&#4449.83799999999998&#4442.596774193548306, !- Building Unit Feature Value 25
  EPWDataMonthlyAvgDailyLowDrybulbs,      !- Building Unit Feature Name 26
  String,                                 !- Building Unit Feature Data Type 26
  21.066451612903183&#4424.774285714285615&#4443.45032258064512&#4441.12599999999993&#4455.452258064516016&#4462.84599999999992&#4472.65677419354839&#4465.29999999999994&#4455.53799999999991&#4442.81161290322573&#4431.90399999999992&#4428.27806451612898, !- Building Unit Feature Value 26
  EPWDesignHeatingDrybulb,                !- Building Unit Feature Name 27
  Double,                                 !- Building Unit Feature Data Type 27
  13.999999999999936,                     !- Building Unit Feature Value 27
  EPWDesignHeatingWindspeed,              !- Building Unit Feature Name 28
  Double,                                 !- Building Unit Feature Data Type 28
  4.125,                                  !- Building Unit Feature Value 28
  EPWDesignCoolingDrybulb,                !- Building Unit Feature Name 29
  Double,                                 !- Building Unit Feature Data Type 29
  96.07999999999997,                      !- Building Unit Feature Value 29
  EPWDesignCoolingWetbulb,                !- Building Unit Feature Name 30
  Double,                                 !- Building Unit Feature Data Type 30
  71.610407140758767,                     !- Building Unit Feature Value 30
  EPWDesignCoolingHumidityRatio,          !- Building Unit Feature Name 31
  Double,                                 !- Building Unit Feature Data Type 31
  0.011209163918750572,                   !- Building Unit Feature Value 31
  EPWDesignCoolingWindspeed,              !- Building Unit Feature Name 32
  Double,                                 !- Building Unit Feature Data Type 32
  2.7814814814814817,                     !- Building Unit Feature Value 32
  EPWDesignDailyTemperatureRange,         !- Building Unit Feature Name 33
  Double,                                 !- Building Unit Feature Data Type 33
  23.672903225806408,                     !- Building Unit Feature Value 33
  EPWDesignDehumidDrybulb,                !- Building Unit Feature Name 34
  Double,                                 !- Building Unit Feature Data Type 34
  79.33373913043468,                      !- Building Unit Feature Value 34
  EPWDesignDehumidHumidityRatio,          !- Building Unit Feature Name 35
  Double,                                 !- Building Unit Feature Data Type 35
  0.017428546213141608,                   !- Building Unit Feature Value 35
  EPWDesignCoolingDirectNormal,           !- Building Unit Feature Name 36
  Double,                                 !- Building Unit Feature Data Type 36
  909,                                    !- Building Unit Feature Value 36
  EPWDesignCoolingDiffuseHorizontal,      !- Building Unit Feature Name 37
  Double,                                 !- Building Unit Feature Data Type 37
  146;                                    !- Building Unit Feature Value 37

OS:ClimateZones,
  {afd8fc9c-016c-447e-a4c1-d16183302e48}, !- Handle
  ,                                       !- Active Institution
  ,                                       !- Active Year
  ,                                       !- Climate Zone Institution Name 1
  ,                                       !- Climate Zone Document Name 1
  ,                                       !- Climate Zone Document Year 1
  ,                                       !- Climate Zone Value 1
  Building America,                       !- Climate Zone Institution Name 2
  ,                                       !- Climate Zone Document Name 2
  0,                                      !- Climate Zone Document Year 2
  Cold;                                   !- Climate Zone Value 2

OS:Site:WaterMainsTemperature,
  {72747840-3435-4ce9-aede-4d741964c348}, !- Handle
  Correlation,                            !- Calculation Method
  ,                                       !- Temperature Schedule Name
  12.7260958904109,                       !- Annual Average Outdoor Air Temperature {C}
  30.3940860215054;                       !- Maximum Difference In Monthly Average Outdoor Air Temperatures {deltaC}

OS:RunPeriodControl:DaylightSavingTime,
  {6b18ad83-633d-4dc1-8d5d-34f8b22785d4}, !- Handle
  4/7,                                    !- Start Date
  10/26;                                  !- End Date

OS:Site:GroundTemperature:BuildingSurface,
  {884fa20c-c7c7-4d06-9869-a5623a5e31cc}, !- Handle
  7.20345762605643,                       !- January Ground Temperature {C}
  4.87903817650613,                       !- February Ground Temperature {C}
  4.69070337664732,                       !- March Ground Temperature {C}
  5.79097635793937,                       !- April Ground Temperature {C}
  10.2133508898103,                       !- May Ground Temperature {C}
  14.6188254803471,                       !- June Ground Temperature {C}
  18.4422291216785,                       !- July Ground Temperature {C}
  20.8703663924864,                       !- August Ground Temperature {C}
  21.0876075365542,                       !- September Ground Temperature {C}
  19.13099233581,                         !- October Ground Temperature {C}
  15.4166710772196,                       !- November Ground Temperature {C}
  11.1466271747141;                       !- December Ground Temperature {C}

OS:Site:GroundTemperature:Deep,
  {7947a04f-41a1-4b96-90df-317da82f9a77}, !- Handle
  12.7260958904109,                       !- January Deep Ground Temperature {C}
  12.7260958904109,                       !- February Deep Ground Temperature {C}
  12.7260958904109,                       !- March Deep Ground Temperature {C}
  12.7260958904109,                       !- April Deep Ground Temperature {C}
  12.7260958904109,                       !- May Deep Ground Temperature {C}
  12.7260958904109,                       !- June Deep Ground Temperature {C}
  12.7260958904109,                       !- July Deep Ground Temperature {C}
  12.7260958904109,                       !- August Deep Ground Temperature {C}
  12.7260958904109,                       !- September Deep Ground Temperature {C}
  12.7260958904109,                       !- October Deep Ground Temperature {C}
  12.7260958904109,                       !- November Deep Ground Temperature {C}
  12.7260958904109;                       !- December Deep Ground Temperature {C}

OS:ThermalZone,
  {c67c0b62-6133-43d9-9c5d-a3db4c420077}, !- Handle
  living zone,                            !- Name
  ,                                       !- Multiplier
  ,                                       !- Ceiling Height {m}
  ,                                       !- Volume {m3}
  ,                                       !- Floor Area {m2}
  ,                                       !- Zone Inside Convection Algorithm
  ,                                       !- Zone Outside Convection Algorithm
  ,                                       !- Zone Conditioning Equipment List Name
  {c7071f5f-d4e3-4405-9b3f-369791993719}, !- Zone Air Inlet Port List
  {80d65c50-7c3a-455c-8443-4ea8a1869248}, !- Zone Air Exhaust Port List
  {3737c727-e162-4bd3-a3ba-b7abd7413441}, !- Zone Air Node Name
  {a65a93ec-46a9-4560-90c0-25db8b2f5669}, !- Zone Return Air Node Name
  ,                                       !- Primary Daylighting Control Name
  ,                                       !- Fraction of Zone Controlled by Primary Daylighting Control
  ,                                       !- Secondary Daylighting Control Name
  ,                                       !- Fraction of Zone Controlled by Secondary Daylighting Control
  ,                                       !- Illuminance Map Name
  ,                                       !- Group Rendering Name
  {ccbeef94-f722-4255-bedc-2ee54d65170c}, !- Thermostat Name
  No;                                     !- Use Ideal Air Loads

OS:Node,
  {250cc751-1c9e-456d-8cb5-39ea4c97e80d}, !- Handle
  Node 1,                                 !- Name
  {3737c727-e162-4bd3-a3ba-b7abd7413441}, !- Inlet Port
  ;                                       !- Outlet Port

OS:Connection,
  {3737c727-e162-4bd3-a3ba-b7abd7413441}, !- Handle
  {22282327-1300-4cb2-8fa8-2677e69ba7f5}, !- Name
  {c67c0b62-6133-43d9-9c5d-a3db4c420077}, !- Source Object
  11,                                     !- Outlet Port
  {250cc751-1c9e-456d-8cb5-39ea4c97e80d}, !- Target Object
  2;                                      !- Inlet Port

OS:PortList,
  {c7071f5f-d4e3-4405-9b3f-369791993719}, !- Handle
  {caf596de-5e63-40f1-bf2b-f5e63082db9e}, !- Name
  {c67c0b62-6133-43d9-9c5d-a3db4c420077}, !- HVAC Component
  {9945c765-4aba-4eb3-b9cc-c0d30ebde8ab}; !- Port 1

OS:PortList,
  {80d65c50-7c3a-455c-8443-4ea8a1869248}, !- Handle
  {9a2d4b33-5784-4d0e-b8a5-9057f80b4662}, !- Name
  {c67c0b62-6133-43d9-9c5d-a3db4c420077}; !- HVAC Component

OS:Sizing:Zone,
  {707ce4b4-39d8-45c0-a9a4-b450de9f19af}, !- Handle
  {c67c0b62-6133-43d9-9c5d-a3db4c420077}, !- Zone or ZoneList Name
  SupplyAirTemperature,                   !- Zone Cooling Design Supply Air Temperature Input Method
  14,                                     !- Zone Cooling Design Supply Air Temperature {C}
  11.11,                                  !- Zone Cooling Design Supply Air Temperature Difference {deltaC}
  SupplyAirTemperature,                   !- Zone Heating Design Supply Air Temperature Input Method
  40,                                     !- Zone Heating Design Supply Air Temperature {C}
  11.11,                                  !- Zone Heating Design Supply Air Temperature Difference {deltaC}
  0.0085,                                 !- Zone Cooling Design Supply Air Humidity Ratio {kg-H2O/kg-air}
  0.008,                                  !- Zone Heating Design Supply Air Humidity Ratio {kg-H2O/kg-air}
  ,                                       !- Zone Heating Sizing Factor
  ,                                       !- Zone Cooling Sizing Factor
  DesignDay,                              !- Cooling Design Air Flow Method
  ,                                       !- Cooling Design Air Flow Rate {m3/s}
  ,                                       !- Cooling Minimum Air Flow per Zone Floor Area {m3/s-m2}
  ,                                       !- Cooling Minimum Air Flow {m3/s}
  ,                                       !- Cooling Minimum Air Flow Fraction
  DesignDay,                              !- Heating Design Air Flow Method
  ,                                       !- Heating Design Air Flow Rate {m3/s}