!- NOTE: Auto-generated from /test/osw_files/SFD_Successful_EnergyPlus_Run_TMY.osw

OS:Version,
  {b3d656f9-1426-4e4e-bd91-be7dea669d23}, !- Handle
  2.2.1;                                  !- Version Identifier

OS:Building,
  {bf305633-c5a1-4881-9edf-ca5e1a8e1274}, !- Handle
  Building,                               !- Name
  ,                                       !- Building Sector Type
  22.5,                                   !- North Axis {deg}
  ,                                       !- Nominal Floor to Floor Height {m}
  ,                                       !- Space Type Name
  ,                                       !- Default Construction Set Name
  ,                                       !- Default Schedule Set Name
  2,                                      !- Standards Number of Stories
  2,                                      !- Standards Number of Above Ground Stories
  singlefamilydetached,                   !- Standards Building Type
  1;                                      !- Standards Number of Living Units

OS:YearDescription,
  {513d8dda-86cb-442a-b01c-1f7f0e0ac70e}; !- Handle

OS:SimulationControl,
  {2c487a4c-bac9-4ac5-b669-1e49d9da7c2b}, !- Handle
  ,                                       !- Do Zone Sizing Calculation
  ,                                       !- Do System Sizing Calculation
  ,                                       !- Do Plant Sizing Calculation
  No,                                     !- Run Simulation for Sizing Periods
  ;                                       !- Run Simulation for Weather File Run Periods

OS:Timestep,
  {4ebc9f1e-4707-402e-9844-67eb1ffbd522}, !- Handle
  6;                                      !- Number of Timesteps per Hour

OS:RunPeriod,
  {28df894d-6af9-4fb8-8f56-df1753344aa3}, !- Handle
  Run Period,                             !- Name
  1,                                      !- Begin Month
  1,                                      !- Begin Day of Month
  12,                                     !- End Month
  31,                                     !- End Day of Month
  ,                                       !- Use Weather File Holidays and Special Days
  ,                                       !- Use Weather File Daylight Saving Period
  ,                                       !- Apply Weekend Holiday Rule
  ,                                       !- Use Weather File Rain Indicators
  ,                                       !- Use Weather File Snow Indicators
  ;                                       !- Number of Times Runperiod to be Repeated

OS:Sizing:Parameters,
  {dde5af6f-7923-4600-a28a-7556673a0266}, !- Handle
  1.0,                                    !- Heating Sizing Factor
  1.0;                                    !- Cooling Sizing Factor

OS:ShadowCalculation,
  {ca758bea-4416-4626-9bba-3d8795c79bd6}, !- Handle
  20,                                     !- Calculation Frequency
  200;                                    !- Maximum Figures in Shadow Overlap Calculations

OS:SurfaceConvectionAlgorithm:Inside,
  {aaabfc36-718a-4ab0-b622-f186ebb45230}, !- Handle
  TARP;                                   !- Algorithm

OS:SurfaceConvectionAlgorithm:Outside,
  {9a0a9f6f-4bbd-4b12-a121-9492a1fcd7d6}, !- Handle
  DOE-2;                                  !- Algorithm

OS:HeatBalanceAlgorithm,
  {9d93e563-e1e0-46d7-9e39-d1c8aceb7212}, !- Handle
  ConductionTransferFunction,             !- Algorithm
  200;                                    !- Surface Temperature Upper Limit {C}

OS:ZoneCapacitanceMultiplier:ResearchSpecial,
  {6bfced16-b16f-47f6-8223-f7e267d75d19}, !- Handle
  ,                                       !- Temperature Capacity Multiplier
  15,                                     !- Humidity Capacity Multiplier
  ;                                       !- Carbon Dioxide Capacity Multiplier

OS:Site,
  {33e0fd05-11bc-46ff-a5ed-3a242a5a2142}, !- Handle
  Denver Intl Ap_CO_USA,                  !- Name
  39.83,                                  !- Latitude {deg}
  -104.65,                                !- Longitude {deg}
  -7,                                     !- Time Zone {hr}
  1650,                                   !- Elevation {m}
  Suburbs;                                !- Terrain

OS:WeatherFile,
  {9405ada3-8716-4979-b426-444b8dd47aa6}, !- Handle
  Denver Intl Ap,                         !- City
  CO,                                     !- State Province Region
  USA,                                    !- Country
  TMY3,                                   !- Data Source
  725650,                                 !- WMO Number
  39.83,                                  !- Latitude {deg}
  -104.65,                                !- Longitude {deg}
  -7,                                     !- Time Zone {hr}
  1650,                                   !- Elevation {m}
  file:../tests/USA_CO_Denver_Intl_AP_725650_TMY3.epw, !- Url
  E23378AA;                               !- Checksum

OS:ClimateZones,
  {e5b39f21-4765-4e55-83b3-6cb8818e5305}, !- Handle
  ,                                       !- Active Institution
  ,                                       !- Active Year
  ,                                       !- Climate Zone Institution Name 1
  ,                                       !- Climate Zone Document Name 1
  ,                                       !- Climate Zone Document Year 1
  ,                                       !- Climate Zone Value 1
  Building America,                       !- Climate Zone Institution Name 2
  ,                                       !- Climate Zone Document Name 2
  0,                                      !- Climate Zone Document Year 2
  Cold;                                   !- Climate Zone Value 2

OS:Site:WaterMainsTemperature,
  {8d925d31-32fb-4e7d-b98e-c72a59f5d2e8}, !- Handle
  Correlation,                            !- Calculation Method
  ,                                       !- Temperature Schedule Name
  10.8753424657535,                       !- Annual Average Outdoor Air Temperature {C}
  23.1524007936508;                       !- Maximum Difference In Monthly Average Outdoor Air Temperatures {deltaC}

OS:RunPeriodControl:DaylightSavingTime,
  {d5806563-b65d-4d44-8254-814a4bd41820}, !- Handle
  4/7,                                    !- Start Date
  10/26;                                  !- End Date

OS:Site:GroundTemperature:BuildingSurface,
  {d815a7d5-500a-42ed-91ea-6a20890bbbab}, !- Handle
  6.71220717182217,                       !- January Ground Temperature {C}
  4.94160315792055,                       !- February Ground Temperature {C}
  4.79814094732353,                       !- March Ground Temperature {C}
  5.63626323951138,                       !- April Ground Temperature {C}
  9.00496422788996,                       !- May Ground Temperature {C}
  12.3607918495591,                       !- June Ground Temperature {C}
  15.2732325604715,                       !- July Ground Temperature {C}
  17.1228426206644,                       !- August Ground Temperature {C}
  17.2883239591317,                       !- September Ground Temperature {C}
  15.7978912711895,                       !- October Ground Temperature {C}
  12.9685430093462,                       !- November Ground Temperature {C}
  9.71587840323366;                       !- December Ground Temperature {C}

OS:Site:GroundTemperature:Deep,
  {7d02ce9a-f233-470b-bcd9-815a523ddd31}, !- Handle
  10.8753424657535,                       !- January Deep Ground Temperature {C}
  10.8753424657535,                       !- February Deep Ground Temperature {C}
  10.8753424657535,                       !- March Deep Ground Temperature {C}
  10.8753424657535,                       !- April Deep Ground Temperature {C}
  10.8753424657535,                       !- May Deep Ground Temperature {C}
  10.8753424657535,                       !- June Deep Ground Temperature {C}
  10.8753424657535,                       !- July Deep Ground Temperature {C}
  10.8753424657535,                       !- August Deep Ground Temperature {C}
  10.8753424657535,                       !- September Deep Ground Temperature {C}
  10.8753424657535,                       !- October Deep Ground Temperature {C}
  10.8753424657535,                       !- November Deep Ground Temperature {C}
  10.8753424657535;                       !- December Deep Ground Temperature {C}

OS:ThermalZone,
  {f637bff5-b5e0-439d-bfd0-00a73da175ac}, !- Handle
  living zone,                            !- Name
  ,                                       !- Multiplier
  ,                                       !- Ceiling Height {m}
  ,                                       !- Volume {m3}
  ,                                       !- Floor Area {m2}
  ,                                       !- Zone Inside Convection Algorithm
  ,                                       !- Zone Outside Convection Algorithm
  ,                                       !- Zone Conditioning Equipment List Name
  {029ab552-2919-4754-8a99-e8995ef7e1d8}, !- Zone Air Inlet Port List
  {fdd7e60a-c709-40c5-9cfb-59c7506bf330}, !- Zone Air Exhaust Port List
  {ab35cabc-68a1-4138-8c9a-e3861cc72bd3}, !- Zone Air Node Name
  {447fb89f-9157-4b45-abc8-141e5dbf59b0}, !- Zone Return Air Node Name
  ,                                       !- Primary Daylighting Control Name
  ,                                       !- Fraction of Zone Controlled by Primary Daylighting Control
  ,                                       !- Secondary Daylighting Control Name
  ,                                       !- Fraction of Zone Controlled by Secondary Daylighting Control
  ,                                       !- Illuminance Map Name
  ,                                       !- Group Rendering Name
  {95214b54-081c-4ae5-89a2-f0f552fc38e5}, !- Thermostat Name
  No;                                     !- Use Ideal Air Loads

OS:Node,
  {2b2b317b-b8e7-46e1-911b-8b630676b2a4}, !- Handle
  Node 1,                                 !- Name
  {ab35cabc-68a1-4138-8c9a-e3861cc72bd3}, !- Inlet Port
  ;                                       !- Outlet Port

OS:Connection,
  {ab35cabc-68a1-4138-8c9a-e3861cc72bd3}, !- Handle
  {96d1ce63-be28-45a3-95a4-2403ba9307f5}, !- Name
  {f637bff5-b5e0-439d-bfd0-00a73da175ac}, !- Source Object
  11,                                     !- Outlet Port
  {2b2b317b-b8e7-46e1-911b-8b630676b2a4}, !- Target Object
  2;                                      !- Inlet Port

OS:PortList,
  {029ab552-2919-4754-8a99-e8995ef7e1d8}, !- Handle
  {a264fb5f-e369-4971-bbb7-d87f4b35d99d}, !- Name
  {f637bff5-b5e0-439d-bfd0-00a73da175ac}, !- HVAC Component
  {9c35de66-2c26-49f6-8df0-41a84ba76254}; !- Port 1

OS:PortList,
  {fdd7e60a-c709-40c5-9cfb-59c7506bf330}, !- Handle
  {84084574-2d9b-4ba0-bf3b-82d1bc1e1d52}, !- Name
  {f637bff5-b5e0-439d-bfd0-00a73da175ac}; !- HVAC Component

OS:Sizing:Zone,
  {872f9c92-3388-4cff-afca-ff2ecbd74b34}, !- Handle
  {f637bff5-b5e0-439d-bfd0-00a73da175ac}, !- Zone or ZoneList Name
  SupplyAirTemperature,                   !- Zone Cooling Design Supply Air Temperature Input Method
  14,                                     !- Zone Cooling Design Supply Air Temperature {C}
  11.11,                                  !- Zone Cooling Design Supply Air Temperature Difference {deltaC}
  SupplyAirTemperature,                   !- Zone Heating Design Supply Air Temperature Input Method
  40,                                     !- Zone Heating Design Supply Air Temperature {C}
  11.11,                                  !- Zone Heating Design Supply Air Temperature Difference {deltaC}
  0.0085,                                 !- Zone Cooling Design Supply Air Humidity Ratio {kg-H2O/kg-air}
  0.008,                                  !- Zone Heating Design Supply Air Humidity Ratio {kg-H2O/kg-air}
  ,                                       !- Zone Heating Sizing Factor
  ,                                       !- Zone Cooling Sizing Factor
  DesignDay,                              !- Cooling Design Air Flow Method
  ,                                       !- Cooling Design Air Flow Rate {m3/s}
  ,                                       !- Cooling Minimum Air Flow per Zone Floor Area {m3/s-m2}
  ,                                       !- Cooling Minimum Air Flow {m3/s}
  ,                                       !- Cooling Minimum Air Flow Fraction
  DesignDay,                              !- Heating Design Air Flow Method
  ,                                       !- Heating Design Air Flow Rate {m3/s}
  ,                                       !- Heating Maximum Air Flow per Zone Floor Area {m3/s-m2}
  ,                                       !- Heating Maximum Air Flow {m3/s}
  ,                                       !- Heating Maximum Air Flow Fraction
  ,                                       !- Design Zone Air Distribution Effectiveness in Cooling Mode
  ,                                       !- Design Zone Air Distribution Effectiveness in Heating Mode
  No,                                     !- Account for Dedicated Outdoor Air System
  NeutralSupplyAir,                       !- Dedicated Outdoor Air System Control Strategy
  autosize,                               !- Dedicated Outdoor Air Low Setpoint Temperature for Design {C}
  autosize;                               !- Dedicated Outdoor Air High Setpoint Temperature for Design {C}

OS:ZoneHVAC:EquipmentList,
  {929d1db0-60bb-4361-a3a8-6313514004d6}, !- Handle
  Zone HVAC Equipment List 1,             !- Name
  {f637bff5-b5e0-439d-bfd0-00a73da175ac}, !- Thermal Zone
  {7e7fa11c-f4ec-4665-8fae-13ddff5ae74a}, !- Zone Equipment 1
  1,                                      !- Zone Equipment Cooling Sequence 1
  1;                                      !- Zone Equipment Heating or No-Load Sequence 1

OS:Space,
  {8e5205e5-2309-420e-b3bf-538dabd9bcba}, !- Handle
  living space,                           !- Name
  ,                                       !- Space Type Name
  ,                                       !- Default Construction Set Name
  ,                                       !- Default Schedule Set Name
  -0,                                     !- Direction of Relative North {deg}
  0,                                      !- X Origin {m}
  0,                                      !- Y Origin {m}
  0,                                      !- Z Origin {m}
  ,                                       !- Building Story Name
  {f637bff5-b5e0-439d-bfd0-00a73da175ac}, !- Thermal Zone Name
  ,                                       !- Part of Total Floor Area
  ,                                       !- Design Specification Outdoor Air Object Name
  {5066302d-4418-4466-a683-e76501650f61}; !- Building Unit Name

OS:Surface,
  {605b75f9-0b4f-45e0-b2fe-e13465791251}, !- Handle
  Surface 1,                              !- Name
  Floor,                                  !- Surface Type
  {31a8a4b9-76f8-4903-8dc4-43c154f10e66}, !- Construction Name
  {8e5205e5-2309-420e-b3bf-538dabd9bcba}, !- Space Name
  Ground,                                 !- Outside Boundary Condition
  ,                                       !- Outside Boundary Condition Object
  NoSun,                                  !- Sun Exposure
  NoWind,                                 !- Wind Exposure
  ,                                       !- View Factor to Ground
  ,                                       !- Number of Vertices
  0, 0, 0,                                !- X,Y,Z Vertex 1 {m}
  0, 4.81931115409661, 0,                 !- X,Y,Z Vertex 2 {m}
  9.63862230819322, 4.81931115409661, 0,  !- X,Y,Z Vertex 3 {m}
  9.63862230819322, 0, 0;                 !- X,Y,Z Vertex 4 {m}

OS:Surface,
  {607a0727-d87d-408c-869c-ec9b5e3af456}, !- Handle
  Surface 2,                              !- Name
  Wall,                                   !- Surface Type
  {ec31d7a6-62bd-4d35-a582-3d8b128f69f6}, !- Construction Name
  {8e5205e5-2309-420e-b3bf-538dabd9bcba}, !- Space Name
  Outdoors,                               !- Outside Boundary Condition
  ,                                       !- Outside Boundary Condition Object
  SunExposed,                             !- Sun Exposure
  WindExposed,                            !- Wind Exposure
  ,                                       !- View Factor to Ground
  ,                                       !- Number of Vertices
  0, 4.81931115409661, 2.4384,            !- X,Y,Z Vertex 1 {m}
  0, 4.81931115409661, 0,                 !- X,Y,Z Vertex 2 {m}
  0, 0, 0,                                !- X,Y,Z Vertex 3 {m}
  0, 0, 2.4384;                           !- X,Y,Z Vertex 4 {m}

OS:Surface,
  {0bfe6e7c-a5c5-4d84-a0a6-0a2e25238e30}, !- Handle
  Surface 3,                              !- Name
  Wall,                                   !- Surface Type
  {ec31d7a6-62bd-4d35-a582-3d8b128f69f6}, !- Construction Name
  {8e5205e5-2309-420e-b3bf-538dabd9bcba}, !- Space Name
  Outdoors,                               !- Outside Boundary Condition
  ,                                       !- Outside Boundary Condition Object
  SunExposed,                             !- Sun Exposure
  WindExposed,                            !- Wind Exposure
  ,                                       !- View Factor to Ground
  ,                                       !- Number of Vertices
  9.63862230819322, 4.81931115409661, 2.4384, !- X,Y,Z Vertex 1 {m}
  9.63862230819322, 4.81931115409661, 0,  !- X,Y,Z Vertex 2 {m}
  0, 4.81931115409661, 0,                 !- X,Y,Z Vertex 3 {m}
  0, 4.81931115409661, 2.4384;            !- X,Y,Z Vertex 4 {m}

OS:Surface,
  {c5b77700-48ed-48ee-ac9f-cddcb0d51674}, !- Handle
  Surface 4,                              !- Name
  Wall,                                   !- Surface Type
  {ec31d7a6-62bd-4d35-a582-3d8b128f69f6}, !- Construction Name
  {8e5205e5-2309-420e-b3bf-538dabd9bcba}, !- Space Name
  Outdoors,                               !- Outside Boundary Condition
  ,                                       !- Outside Boundary Condition Object
  SunExposed,                             !- Sun Exposure
  WindExposed,                            !- Wind Exposure
  ,                                       !- View Factor to Ground
  ,                                       !- Number of Vertices
  9.63862230819322, 0, 2.4384,            !- X,Y,Z Vertex 1 {m}
  9.63862230819322, 0, 0,                 !- X,Y,Z Vertex 2 {m}
  9.63862230819322, 4.81931115409661, 0,  !- X,Y,Z Vertex 3 {m}
  9.63862230819322, 4.81931115409661, 2.4384; !- X,Y,Z Vertex 4 {m}

OS:Surface,
  {df1d1fb4-ee93-457b-9950-7aae0a51f5e3}, !- Handle
  Surface 5,                              !- Name
  Wall,                                   !- Surface Type
  {ec31d7a6-62bd-4d35-a582-3d8b128f69f6}, !- Construction Name
  {8e5205e5-2309-420e-b3bf-538dabd9bcba}, !- Space Name
  Outdoors,                               !- Outside Boundary Condition
  ,                                       !- Outside Boundary Condition Object
  SunExposed,                             !- Sun Exposure
  WindExposed,                            !- Wind Exposure
  ,                                       !- View Factor to Ground
  ,                                       !- Number of Vertices
  9.63862230819322, 0, 0,                 !- X,Y,Z Vertex 1 {m}
  9.63862230819322, 0, 2.4384,            !- X,Y,Z Vertex 2 {m}
  1.04865714285714, 0, 2.4384,            !- X,Y,Z Vertex 3 {m}
  1.04865714285714, 0, 0;                 !- X,Y,Z Vertex 4 {m}

OS:Surface,
  {ee28eb41-4839-4ec6-9bd6-cd5122e7d83e}, !- Handle
  Surface 6,                              !- Name
  RoofCeiling,                            !- Surface Type
  {6f40db16-a785-4861-a001-dd5348ffc996}, !- Construction Name
  {8e5205e5-2309-420e-b3bf-538dabd9bcba}, !- Space Name
  Surface,                                !- Outside Boundary Condition
  {5d698ba4-aa95-4b63-86ba-5862b3f2bf16}, !- Outside Boundary Condition Object
  NoSun,                                  !- Sun Exposure
  NoWind,                                 !- Wind Exposure
  ,                                       !- View Factor to Ground
  ,                                       !- Number of Vertices
  9.63862230819322, 0, 2.4384,            !- X,Y,Z Vertex 1 {m}
  9.63862230819322, 4.81931115409661, 2.4384, !- X,Y,Z Vertex 2 {m}
  0, 4.81931115409661, 2.4384,            !- X,Y,Z Vertex 3 {m}
  0, 0, 2.4384;                           !- X,Y,Z Vertex 4 {m}

OS:Space,
  {4eefe0a0-6842-4073-9241-830c28810d66}, !- Handle
  living space|story 2,                   !- Name
  ,                                       !- Space Type Name
  ,                                       !- Default Construction Set Name
  ,                                       !- Default Schedule Set Name
  -0,                                     !- Direction of Relative North {deg}
  0,                                      !- X Origin {m}
  0,                                      !- Y Origin {m}
  2.4384,                                 !- Z Origin {m}
  ,                                       !- Building Story Name
  {f637bff5-b5e0-439d-bfd0-00a73da175ac}, !- Thermal Zone Name
  ,                                       !- Part of Total Floor Area
  ,                                       !- Design Specification Outdoor Air Object Name
  {5066302d-4418-4466-a683-e76501650f61}; !- Building Unit Name

OS:Surface,
  {5d698ba4-aa95-4b63-86ba-5862b3f2bf16}, !- Handle
  Surface 7,                              !- Name
  Floor,                                  !- Surface Type
  {097048ff-bba9-4637-bbf7-11d4ff0ee8ec}, !- Construction Name
  {4eefe0a0-6842-4073-9241-830c28810d66}, !- Space Name
  Surface,                                !- Outside Boundary Condition
  {ee28eb41-4839-4ec6-9bd6-cd5122e7d83e}, !- Outside Boundary Condition Object
  NoSun,                                  !- Sun Exposure
  NoWind,                                 !- Wind Exposure
  ,                                       !- View Factor to Ground
  ,                                       !- Number of Vertices
  0, 0, 0,                                !- X,Y,Z Vertex 1 {m}
  0, 4.81931115409661, 0,                 !- X,Y,Z Vertex 2 {m}
  9.63862230819322, 4.81931115409661, 0,  !- X,Y,Z Vertex 3 {m}
  9.63862230819322, 0, 0;                 !- X,Y,Z Vertex 4 {m}

OS:Surface,
  {8ea0f648-277d-4111-98ff-d3b4029a26c4}, !- Handle
  Surface 8,                              !- Name
  Wall,                                   !- Surface Type
  {ec31d7a6-62bd-4d35-a582-3d8b128f69f6}, !- Construction Name
  {4eefe0a0-6842-4073-9241-830c28810d66}, !- Space Name
  Outdoors,                               !- Outside Boundary Condition
  ,                                       !- Outside Boundary Condition Object
  SunExposed,                             !- Sun Exposure
  WindExposed,                            !- Wind Exposure
  ,                                       !- View Factor to Ground
  ,                                       !- Number of Vertices
  0, 4.81931115409661, 2.4384,            !- X,Y,Z Vertex 1 {m}
  0, 4.81931115409661, 0,                 !- X,Y,Z Vertex 2 {m}
  0, 0, 0,                                !- X,Y,Z Vertex 3 {m}
  0, 0, 2.4384;                           !- X,Y,Z Vertex 4 {m}

OS:Surface,
  {46d95d57-e0b1-4b01-8750-17d9e13041d8}, !- Handle
  Surface 9,                              !- Name
  Wall,                                   !- Surface Type
  {ec31d7a6-62bd-4d35-a582-3d8b128f69f6}, !- Construction Name
  {4eefe0a0-6842-4073-9241-830c28810d66}, !- Space Name
  Outdoors,                               !- Outside Boundary Condition
  ,                                       !- Outside Boundary Condition Object
  SunExposed,                             !- Sun Exposure
  WindExposed,                            !- Wind Exposure
  ,                                       !- View Factor to Ground
  ,                                       !- Number of Vertices
  9.63862230819322, 4.81931115409661, 2.4384, !- X,Y,Z Vertex 1 {m}
  9.63862230819322, 4.81931115409661, 0,  !- X,Y,Z Vertex 2 {m}
  0, 4.81931115409661, 0,                 !- X,Y,Z Vertex 3 {m}
  0, 4.81931115409661, 2.4384;            !- X,Y,Z Vertex 4 {m}

OS:Surface,
  {eafedff5-7a0b-4955-82ed-4d72f041eb4c}, !- Handle
  Surface 10,                             !- Name
  Wall,                                   !- Surface Type
  {ec31d7a6-62bd-4d35-a582-3d8b128f69f6}, !- Construction Name
  {4eefe0a0-6842-4073-9241-830c28810d66}, !- Space Name
  Outdoors,                               !- Outside Boundary Condition
  ,                                       !- Outside Boundary Condition Object
  SunExposed,                             !- Sun Exposure
  WindExposed,                            !- Wind Exposure
  ,                                       !- View Factor to Ground
  ,                                       !- Number of Vertices
  9.63862230819322, 0, 2.4384,            !- X,Y,Z Vertex 1 {m}
  9.63862230819322, 0, 0,                 !- X,Y,Z Vertex 2 {m}
  9.63862230819322, 4.81931115409661, 0,  !- X,Y,Z Vertex 3 {m}
  9.63862230819322, 4.81931115409661, 2.4384; !- X,Y,Z Vertex 4 {m}

OS:Surface,
  {8408496b-a254-4686-a912-0bc83e058faf}, !- Handle
  Surface 11,                             !- Name
  Wall,                                   !- Surface Type
  {ec31d7a6-62bd-4d35-a582-3d8b128f69f6}, !- Construction Name
  {4eefe0a0-6842-4073-9241-830c28810d66}, !- Space Name
  Outdoors,                               !- Outside Boundary Condition
  ,                                       !- Outside Boundary Condition Object
  SunExposed,                             !- Sun Exposure
  WindExposed,                            !- Wind Exposure
  ,                                       !- View Factor to Ground
  ,                                       !- Number of Vertices
  0, 0, 2.4384,                           !- X,Y,Z Vertex 1 {m}
  0, 0, 0,                                !- X,Y,Z Vertex 2 {m}
  9.63862230819322, 0, 0,                 !- X,Y,Z Vertex 3 {m}
  9.63862230819322, 0, 2.4384;            !- X,Y,Z Vertex 4 {m}

OS:Surface,
  {46313e76-dd48-428f-bd0a-89fb087dda73}, !- Handle
  Surface 12,                             !- Name
  RoofCeiling,                            !- Surface Type
  {8e857f1b-49ef-4f3e-8ea4-ec270d10c48e}, !- Construction Name
  {4eefe0a0-6842-4073-9241-830c28810d66}, !- Space Name
  Surface,                                !- Outside Boundary Condition
  {a1ce68dc-a60b-4604-8477-db98df54537f}, !- Outside Boundary Condition Object
  NoSun,                                  !- Sun Exposure
  NoWind,                                 !- Wind Exposure
  ,                                       !- View Factor to Ground
  ,                                       !- Number of Vertices
  9.63862230819322, 0, 2.4384,            !- X,Y,Z Vertex 1 {m}
  9.63862230819322, 4.81931115409661, 2.4384, !- X,Y,Z Vertex 2 {m}
  0, 4.81931115409661, 2.4384,            !- X,Y,Z Vertex 3 {m}
  0, 0, 2.4384;                           !- X,Y,Z Vertex 4 {m}

OS:Surface,
  {a1ce68dc-a60b-4604-8477-db98df54537f}, !- Handle
  Surface 13,                             !- Name
  Floor,                                  !- Surface Type
  {1294cb99-d7e6-4c6c-ac92-bc1668c39b16}, !- Construction Name
  {eda950d9-0259-4abe-bc25-648e2514afba}, !- Space Name
  Surface,                                !- Outside Boundary Condition
  {46313e76-dd48-428f-bd0a-89fb087dda73}, !- Outside Boundary Condition Object
  NoSun,                                  !- Sun Exposure
  NoWind,                                 !- Wind Exposure
  ,                                       !- View Factor to Ground
  ,                                       !- Number of Vertices
  0, 4.81931115409661, 0,                 !- X,Y,Z Vertex 1 {m}
  9.63862230819322, 4.81931115409661, 0,  !- X,Y,Z Vertex 2 {m}
  9.63862230819322, 0, 0,                 !- X,Y,Z Vertex 3 {m}
  0, 0, 0;                                !- X,Y,Z Vertex 4 {m}

OS:Surface,
  {fb4e89b4-e293-4daf-854b-ef3e63a44f07}, !- Handle
  Surface 14,                             !- Name
  RoofCeiling,                            !- Surface Type
  {793b22e8-498e-462e-a435-b06c4e57460c}, !- Construction Name
  {eda950d9-0259-4abe-bc25-648e2514afba}, !- Space Name
  Outdoors,                               !- Outside Boundary Condition
  ,                                       !- Outside Boundary Condition Object
  SunExposed,                             !- Sun Exposure
  WindExposed,                            !- Wind Exposure
  ,                                       !- View Factor to Ground
  ,                                       !- Number of Vertices
  9.63862230819322, 2.40965557704831, 1.20482778852415, !- X,Y,Z Vertex 1 {m}
  0, 2.40965557704831, 1.20482778852415,  !- X,Y,Z Vertex 2 {m}
  0, 0, 0,                                !- X,Y,Z Vertex 3 {m}
  9.63862230819322, 0, 0;                 !- X,Y,Z Vertex 4 {m}

OS:Surface,
  {9265fb76-79c0-4071-983d-ef792730489b}, !- Handle
  Surface 15,                             !- Name
  RoofCeiling,                            !- Surface Type
  {793b22e8-498e-462e-a435-b06c4e57460c}, !- Construction Name
  {eda950d9-0259-4abe-bc25-648e2514afba}, !- Space Name
  Outdoors,                               !- Outside Boundary Condition
  ,                                       !- Outside Boundary Condition Object
  SunExposed,                             !- Sun Exposure
  WindExposed,                            !- Wind Exposure
  ,                                       !- View Factor to Ground
  ,                                       !- Number of Vertices
  0, 2.40965557704831, 1.20482778852415,  !- X,Y,Z Vertex 1 {m}
  9.63862230819322, 2.40965557704831, 1.20482778852415, !- X,Y,Z Vertex 2 {m}
  9.63862230819322, 4.81931115409661, 0,  !- X,Y,Z Vertex 3 {m}
  0, 4.81931115409661, 0;                 !- X,Y,Z Vertex 4 {m}

OS:Surface,
  {908e4017-2ff1-4688-8684-7b8aa77b4d43}, !- Handle